@<TRIPOS>MOLECULE
tmp/1jn2A00.pdb
 101 96 0 0 0
SMALL
GASTEIGER

@<TRIPOS>ATOM
      1  N         22.3460   16.1560   22.9370 N.3    12  TYR12      -0.1241
      2  CA        23.1360   16.9160   23.9490 C.3    12  TYR12       0.1605
      3  C         22.4300   17.1050   25.2580 C.2    12  TYR12       0.2264
      4  O         21.3320   17.6590   25.2790 O.2    12  TYR12      -0.2867
      5  CB        23.5220   18.2770   23.3770 C.3    12  TYR12       0.0534
      6  CG        24.3290   19.0660   24.3740 C.ar   12  TYR12      -0.0201
      7  CD1       23.6990   19.8340   25.3600 C.ar   12  TYR12      -0.0009
      8  CD2       25.7320   18.9790   24.3820 C.ar   12  TYR12      -0.0009
      9  CE1       24.4630   20.4990   26.3420 C.ar   12  TYR12       0.0417
     10  CE2       26.4940   19.6470   25.3500 C.ar   12  TYR12       0.0417
     11  CZ        25.8590   20.4040   26.3220 C.ar   12  TYR12       0.1957
     12  OH        26.6310   21.1010   27.2380 O.3    12  TYR12      -0.2866
     13  N         21.1350   18.8390   28.2740 N.3    14  ASN14      -0.1240
     14  CA        20.9420   20.1560   28.8510 C.3    14  ASN14       0.1653
     15  C         20.2350   19.8570   30.1370 C.2    14  ASN14       0.2266
     16  O         19.0220   20.0110   30.2560 O.2    14  ASN14      -0.2867
     17  CB        20.0730   21.0250   27.9630 C.3    14  ASN14       0.1155
     18  CG        20.6950   21.2410   26.6180 C.2    14  ASN14       0.2627
     19  OD1       20.4280   20.4860   25.7080 O.2    14  ASN14      -0.2716
     20  ND2       21.5600   22.2710   26.4800 N.am   14  ASN14      -0.0877
     21  N         19.8870   21.3510   32.8340 N.3    16  ASP16      -0.1239
     22  CA        19.1150   22.3770   33.5260 C.3    16  ASP16       0.1674
     23  C         17.6670   22.5060   33.0500 C.2    16  ASP16       0.2266
     24  O         16.8500   23.0890   33.7520 O.2    16  ASP16      -0.2867
     25  CB        19.8080   23.7380   33.4220 C.3    16  ASP16       0.1410
     26  CG        19.9640   24.2000   31.9880 C.2    16  ASP16       0.3668
     27  OD1       20.6720   23.5250   31.1970 O.co2  16  ASP16      -0.2456
     28  OD2       19.3760   25.2410   31.6630 O.co2  16  ASP16      -0.2456
     29  N         10.3800   19.7540   27.6540 N.3    33  ARG33      -0.1245
     30  CA        10.6990   18.8540   28.7720 C.3    33  ARG33       0.1563
     31  C          9.9320   17.5540   28.5760 C.2    33  ARG33       0.2260
     32  O          8.7670   17.4280   28.9450 O.2    33  ARG33      -0.2867
     33  CB        10.3330   19.5090   30.0910 C.3    33  ARG33       0.0307
     34  CG        11.2460   20.6860   30.3980 C.3    33  ARG33       0.0489
     35  CD        10.7670   21.4360   31.6210 C.3    33  ARG33       0.2205
     36  NE        11.4170   22.7330   31.7280 N.pl3  33  ARG33      -0.0865
     37  CZ        12.3500   23.0510   32.6210 C.cat  33  ARG33       0.5346
     38  NH1       12.7730   22.1610   33.5210 N.pl3  33  ARG33       0.1354
     39  NH2       12.8550   24.2790   32.6150 N.pl3  33  ARG33       0.1354
     40  N         23.6970   24.5320   18.1730 N.3    98  GLY98      -0.1210
     41  CA        23.7160   25.7720   18.9520 C.3    98  GLY98       0.1956
     42  C         25.1620   26.1130   19.1450 C.2    98  GLY98       0.2612
     43  O         25.8490   26.4560   18.1690 O.2    98  GLY98      -0.2717
     44  N         25.6280   26.0110   20.3830 N.am   99  LEU99      -0.1965
     45  CA        27.0300   26.2480   20.6650 C.3    99  LEU99       0.1728
     46  C         27.8200   25.0590   20.1550 C.2    99  LEU99       0.2616
     47  O         28.9490   25.2190   19.7140 O.2    99  LEU99      -0.2715
     48  CB        27.3000   26.3980   22.1670 C.3    99  LEU99       0.0311
     49  CG        27.3640   27.8320   22.7050 C.3    99  LEU99       0.0022
     50  CD1       28.2030   27.8210   23.9650 C.3    99  LEU99       0.0001
     51  CD2       27.9930   28.7950   21.6960 C.3    99  LEU99       0.0001
     52  N         27.2430   23.8640   20.2590 N.am  100  TYR100     -0.1974
     53  CA        27.9020   22.6610   19.7650 C.3   100  TYR100      0.1639
     54  C         27.1630   22.2470   18.4680 C.2   100  TYR100      0.2290
     55  O         26.0660   22.7560   18.1680 O.2   100  TYR100     -0.2864
     56  CB        27.8560   21.5660   20.8170 C.3   100  TYR100      0.0560
     57  CG        28.5910   21.9570   22.0640 C.ar  100  TYR100     -0.0198
     58  CD1       29.9840   21.8910   22.1200 C.ar  100  TYR100     -0.0009
     59  CD2       27.9040   22.4300   23.1780 C.ar  100  TYR100     -0.0009
     60  CE1       30.6850   22.2870   23.2630 C.ar  100  TYR100      0.0417
     61  CE2       28.5960   22.8310   24.3310 C.ar  100  TYR100      0.0417
     62  CZ        29.9870   22.7500   24.3630 C.ar  100  TYR100      0.1957
     63  OH        30.6690   23.0940   25.5090 O.3   100  TYR100     -0.2866
     64  N         22.4730   19.6770   18.2970 N.3   208  ASP208     -0.1239
     65  CA        21.5900   19.4490   19.4150 C.3   208  ASP208      0.1674
     66  C         20.5890   18.2960   19.2130 C.2   208  ASP208      0.2266
     67  O         20.0610   17.7810   20.1900 O.2   208  ASP208     -0.2867
     68  CB        20.8090   20.7260   19.7270 C.3   208  ASP208      0.1410
     69  CG        21.5960   21.6700   20.6160 C.2   208  ASP208      0.3668
     70  OD1       22.2040   22.6070   20.0690 O.co2 208  ASP208     -0.2456
     71  OD2       21.6100   21.4760   21.8500 O.co2 208  ASP208     -0.2456
     72  N         17.0190   27.9620   18.2430 N.3   226  THR226     -0.1203
     73  CA        18.1980   27.2010   17.8210 C.3   226  THR226      0.1994
     74  C         18.6490   26.4880   19.0900 C.2   226  THR226      0.2618
     75  O         18.0870   26.7400   20.1730 O.2   226  THR226     -0.2717
     76  CB        19.3530   28.0900   17.3890 C.3   226  THR226      0.1784
     77  OG1       19.6840   28.9690   18.4740 O.3   226  THR226     -0.2211
     78  CG2       18.9690   28.8890   16.1840 C.3   226  THR226      0.0376
     79  N         19.6290   25.5920   18.9560 N.am  227  GLY227     -0.1942
     80  CA        20.1430   24.8600   20.1010 C.3   227  GLY227      0.2014
     81  C         19.2300   23.8320   20.7450 C.2   227  GLY227      0.2639
     82  O         18.5580   23.0780   20.0510 O.2   227  GLY227     -0.2714
     83  N         19.2170   23.8170   22.0810 N.am  228  ARG228     -0.1963
     84  CA        18.4430   22.8740   22.9080 C.3   228  ARG228      0.1729
     85  C         16.9610   22.9330   22.6270 C.2   228  ARG228      0.2616
     86  O         16.2480   22.0200   23.0190 O.2   228  ARG228     -0.2715
     87  CB        18.6340   23.1820   24.4100 C.3   228  ARG228      0.0348
     88  CG        18.6090   24.6880   24.5740 C.3   228  ARG228      0.0492
     89  CD        18.0450   25.3450   25.8060 C.3   228  ARG228      0.2205
     90  NE        18.9150   25.2770   26.9470 N.pl3 228  ARG228     -0.0865
     91  CZ        18.7980   26.0370   28.0350 C.cat 228  ARG228      0.5346
     92  NH1       17.8680   26.9900   28.1410 N.pl3 228  ARG228      0.1354
     93  NH2       19.5220   25.7130   29.1010 N.pl3 228  ARG228      0.1354
     94  N         16.4750   24.0020   21.9930 N.am  229  LEU229     -0.1977
     95  CA        15.0440   24.0860   21.7400 C.3   229  LEU229      0.1596
     96  C         14.6020   23.3740   20.4530 C.2   229  LEU229      0.2287
     97  O         13.4140   23.3610   20.1170 O.2   229  LEU229     -0.2864
     98  CB        14.5630   25.5460   21.8090 C.3   229  LEU229      0.0297
     99  CG        14.7260   26.1500   23.2160 C.3   229  LEU229      0.0022
    100  CD1       14.0390   27.4810   23.2630 C.3   229  LEU229      0.0001
    101  CD2       14.1110   25.2580   24.2880 C.3   229  LEU229      0.0001
@<TRIPOS>BOND
     1    78    76    1
     2    76    73    1
     3    76    77    1
     4    73    72    1
     5    73    74    1
     6    55    54    2
     7    43    42    2
     8    40    41    1
     9    64    65    1
    10    54    53    1
    11    41    42    1
    12    79    74   am
    13    79    80    1
    14    74    75    2
    15    42    44   am
    16    66    65    1
    17    66    67    2
    18    65    68    1
    19    47    46    2
    20    68    69    1
    21    53    52    1
    22    53    56    1
    23    82    81    2
    24    70    69   ar
    25    80    81    1
    26    97    96    2
    27    46    52   am
    28    46    45    1
    29    44    45    1
    30    96    95    1
    31    69    71   ar
    32    45    48    1
    33    81    83   am
    34    56    57    1
    35    51    49    1
    36    95    98    1
    37    95    94    1
    38    98    99    1
    39    94    85   am
    40    57    58   ar
    41    57    59   ar
    42    83    84    1
    43    58    60   ar
    44    48    49    1
    45    85    84    1
    46    85    86    2
    47    49    50    1
    48    84    87    1
    49     1     2    1
    50    59    61   ar
    51    99   100    1
    52    99   101    1
    53    60    62   ar
    54     5     2    1
    55     5     6    1
    56     2     3    1
    57    61    62   ar
    58    62    63    1
    59     6     8   ar
    60     6     7   ar
    61     8    10   ar
    62    87    88    1
    63    88    89    1
    64     3     4    2
    65    10    11   ar
    66     7     9   ar
    67    19    18    2
    68    89    90    1
    69    11     9   ar
    70    11    12    1
    71    20    18   am
    72    18    17    1
    73    90    91    2
    74    29    30    1
    75    17    14    1
    76    91    92    1
    77    91    93    1
    78    13    14    1
    79    31    30    1
    80    31    32    2
    81    30    33    1
    82    14    15    1
    83    33    34    1
    84    15    16    2
    85    34    35    1
    86    27    26   ar
    87    35    36    1
    88    28    26   ar
    89    36    37    2
    90    26    25    1
    91    39    37    1
    92    37    38    1
    93    21    22    1
    94    23    22    1
    95    23    24    2
    96    25    22    1
