@<TRIPOS>MOLECULE
tmp/1jn4A00.pdb
 173 164 0 0 0
SMALL
GASTEIGER

@<TRIPOS>ATOM
      1  N         32.9600  -13.5170   21.2090 N.3     4  ALA4       -0.1245
      2  CA        33.1940  -12.0920   21.0500 C.3     4  ALA4        0.1562
      3  C         31.9570  -11.3430   21.5150 C.2     4  ALA4        0.2260
      4  O         32.0550  -10.2780   22.1260 O.2     4  ALA4       -0.2867
      5  CB        33.4730  -11.7780   19.6000 C.3     4  ALA4        0.0290
      6  N         31.8880  -11.2700   25.2820 N.3     7  LYS7       -0.1245
      7  CA        32.8480  -10.3120   25.8030 C.3     7  LYS7        0.1561
      8  C         32.3010   -8.8910   25.7590 C.2     7  LYS7        0.2260
      9  O         32.4510   -8.1420   26.7170 O.2     7  LYS7       -0.2867
     10  CB        34.1540  -10.4110   25.0070 C.3     7  LYS7        0.0271
     11  CG        35.2950   -9.5540   25.5110 C.3     7  LYS7        0.0035
     12  CD        36.5490   -9.7770   24.6600 C.3     7  LYS7        0.0206
     13  CE        37.6010   -8.6990   24.9240 C.3     7  LYS7        0.1093
     14  NZ        38.8800   -8.9030   24.1600 N.3     7  LYS7       -0.1314
     15  N         31.9410   -6.3140   28.8470 N.3    11  GLN11      -0.1231
     16  CA        32.7260   -5.0960   28.8220 C.3    11  GLN11       0.1698
     17  C         31.9130   -3.8120   28.6820 C.2    11  GLN11       0.2592
     18  O         32.3010   -2.7670   29.1910 O.2    11  GLN11      -0.2718
     19  CB        33.7300   -5.1780   27.6760 C.3    11  GLN11       0.0381
     20  CG        34.8470   -6.1800   27.8800 C.3    11  GLN11       0.0905
     21  CD        36.1210   -5.7620   27.1570 C.2    11  GLN11       0.2608
     22  OE1       36.9730   -5.0740   27.7220 O.2    11  GLN11      -0.2717
     23  NE2       36.2490   -6.1650   25.8970 N.am   11  GLN11      -0.0878
     24  N         30.7710   -3.8840   28.0140 N.am   12  HIS12      -0.1976
     25  CA        30.0180   -2.6680   27.7820 C.3    12  HIS12       0.1656
     26  C         28.5570   -2.6230   28.1500 C.2    12  HIS12       0.2291
     27  O         27.9470   -1.5730   28.0480 O.2    12  HIS12      -0.2864
     28  CB        30.1390   -2.2830   26.3110 C.3    12  HIS12       0.0771
     29  CG        31.5460   -2.2660   25.8160 C.ar   12  HIS12       0.0820
     30  ND1       32.3660   -1.1730   25.9690 N.ar   12  HIS12      -0.2267
     31  CD2       32.2930   -3.2290   25.2330 C.ar   12  HIS12       0.1154
     32  CE1       33.5650   -1.4660   25.5030 C.ar   12  HIS12       0.1986
     33  NE2       33.5460   -2.7060   25.0510 N.ar   12  HIS12      -0.2212
     34  N         42.6420   -0.9200   32.0480 N.3    41  LYS41      -0.1245
     35  CA        42.0250   -0.6190   30.7710 C.3    41  LYS41       0.1561
     36  C         41.8580    0.8960   30.8050 C.2    41  LYS41       0.2260
     37  O         41.1060    1.4230   31.6220 O.2    41  LYS41      -0.2867
     38  CB        40.6630   -1.3150   30.6800 C.3    41  LYS41       0.0271
     39  CG        39.9840   -1.2470   29.3280 C.3    41  LYS41       0.0035
     40  CD        39.3640   -2.5900   28.9730 C.3    41  LYS41       0.0206
     41  CE        39.1190   -2.6960   27.4780 C.3    41  LYS41       0.1093
     42  NZ        38.4180   -1.4820   26.9550 N.3    41  LYS41      -0.1314
     43  N         40.3300    3.2880   28.8180 N.3    43  VAL43      -0.1231
     44  CA        38.9880    3.8530   28.6240 C.3    43  VAL43       0.1692
     45  C         37.9530    2.7820   28.3000 C.2    43  VAL43       0.2592
     46  O         38.1560    1.9540   27.3990 O.2    43  VAL43      -0.2718
     47  CB        38.9770    4.8860   27.4530 C.3    43  VAL43       0.0266
     48  CG1       39.6480    4.2820   26.2250 C.3    43  VAL43       0.0020
     49  CG2       37.5450    5.2870   27.0950 C.3    43  VAL43       0.0020
     50  N         36.8370    2.7990   29.0200 N.am   44  ASN44      -0.1960
     51  CA        35.7870    1.8200   28.7520 C.3    44  ASN44       0.1819
     52  C         34.3960    2.4130   28.9220 C.2    44  ASN44       0.2621
     53  O         34.1530    3.1840   29.8480 O.2    44  ASN44      -0.2715
     54  CB        35.9410    0.6070   29.6620 C.3    44  ASN44       0.1195
     55  CG        35.0310   -0.5360   29.2510 C.2    44  ASN44       0.2630
     56  OD1       35.1810   -1.1030   28.1720 O.2    44  ASN44      -0.2716
     57  ND2       34.0790   -0.8740   30.1100 N.am   44  ASN44      -0.0877
     58  N         33.4850    2.0410   28.0270 N.am   45  THR45      -0.1951
     59  CA        32.1110    2.5460   28.0620 C.3    45  THR45       0.1897
     60  C         31.0690    1.4570   28.4010 C.2    45  THR45       0.2313
     61  O         31.0710    0.3720   27.8050 O.2    45  THR45      -0.2863
     62  CB        31.7350    3.1940   26.6940 C.3    45  THR45       0.1794
     63  OG1       32.5770    4.3320   26.4480 O.3    45  THR45      -0.2208
     64  CG2       30.2690    3.6300   26.6930 C.3    45  THR45       0.0378
     65  N         34.1740    2.8250   10.6670 N.3    65  CYS65      -0.1221
     66  CA        34.8410    2.4720   11.9300 C.3    65  CYS65       0.1808
     67  C         36.1430    3.2480   12.0290 C.2    65  CYS65       0.2601
     68  O         36.7370    3.6030   11.0100 O.2    65  CYS65      -0.2717
     69  CB        35.2200    1.0000   11.9520 C.3    65  CYS65       0.0970
     70  SG        33.8170   -0.1420   11.9550 S.3    65  CYS65      -0.0800
     71  N         36.6050    3.4850   13.2500 N.am   66  LYS66      -0.1965
     72  CA        37.8620    4.2080   13.4530 C.3    66  LYS66       0.1728
     73  C         39.0450    3.4790   12.8060 C.2    66  LYS66       0.2616
     74  O         39.9990    4.1070   12.3640 O.2    66  LYS66      -0.2715
     75  CB        38.1250    4.4060   14.9450 C.3    66  LYS66       0.0311
     76  CG        37.4540    5.6430   15.4950 C.3    66  LYS66       0.0038
     77  CD        36.7550    5.3340   16.8100 C.3    66  LYS66       0.0206
     78  CE        37.1180    6.3540   17.8690 C.3    66  LYS66       0.1093
     79  NZ        38.0180    5.7710   18.8960 N.3    66  LYS66      -0.1314
     80  N         38.9710    2.1550   12.7420 N.am   67  ASN67      -0.1972
     81  CA        40.0430    1.3790   12.1320 C.3    67  ASN67       0.1688
     82  C         39.9060    1.2940   10.5970 C.2    67  ASN67       0.2292
     83  O         40.6590    0.5800    9.9280 O.2    67  ASN67      -0.2864
     84  CB        40.1110   -0.0240   12.7720 C.3    67  ASN67       0.1181
     85  CG        39.0480   -0.9750   12.2480 C.2    67  ASN67       0.2629
     86  OD1       38.0710   -0.5590   11.6330 O.2    67  ASN67      -0.2716
     87  ND2       39.2450   -2.2710   12.4890 N.am   67  ASN67      -0.0877
     88  N         37.3970    0.0480    8.9700 N.3    69  GLN69      -0.1245
     89  CA        36.4400   -0.9770    8.5650 C.3    69  GLN69       0.1566
     90  C         35.0730   -0.3440    8.3570 C.2    69  GLN69       0.2260
     91  O         34.8110    0.7710    8.7840 O.2    69  GLN69      -0.2867
     92  CB        36.3510   -2.0800    9.6200 C.3    69  GLN69       0.0367
     93  CG        37.4140   -3.1540    9.4680 C.3    69  GLN69       0.0905
     94  CD        37.2310   -4.2820   10.4480 C.2    69  GLN69       0.2608
     95  OE1       37.8650   -4.3130   11.5050 O.2    69  GLN69      -0.2717
     96  NE2       36.3580   -5.2260   10.1040 N.am   69  GLN69      -0.0878
     97  N         32.2040   -2.0330    9.2090 N.3    71  ASN71      -0.1240
     98  CA        31.2190   -2.7450   10.0130 C.3    71  ASN71       0.1653
     99  C         30.7570   -2.0370   11.3010 C.2    71  ASN71       0.2266
    100  O         30.4500   -2.6910   12.2860 O.2    71  ASN71      -0.2867
    101  CB        31.7300   -4.1620   10.3320 C.3    71  ASN71       0.1155
    102  CG        32.9040   -4.1650   11.2790 C.2    71  ASN71       0.2627
    103  OD1       33.7490   -3.2700   11.2390 O.2    71  ASN71      -0.2716
    104  ND2       32.9690   -5.1710   12.1390 N.am   71  ASN71      -0.0877
    105  N         30.8980    6.6840   30.7660 N.3    83  ASP83      -0.1239
    106  CA        32.2650    6.6080   30.2860 C.3    83  ASP83       0.1674
    107  C         33.2040    6.4290   31.4690 C.2    83  ASP83       0.2266
    108  O         33.0600    7.0960   32.4930 O.2    83  ASP83      -0.2867
    109  CB        32.6520    7.8850   29.5370 C.3    83  ASP83       0.1410
    110  CG        32.2570    7.8530   28.0710 C.2    83  ASP83       0.3668
    111  OD1       32.2330    6.7490   27.4750 O.co2  83  ASP83      -0.2456
    112  OD2       31.9790    8.9460   27.5180 O.co2  83  ASP83      -0.2456
    113  N         30.8200   -1.9380   16.5100 N.3   109  ALA109     -0.1245
    114  CA        31.2100   -2.7780   15.3840 C.3   109  ALA109      0.1562
    115  C         30.5390   -4.1290   15.5820 C.2   109  ALA109      0.2260
    116  O         30.6120   -4.7200   16.6660 O.2   109  ALA109     -0.2867
    117  CB        32.7130   -2.9540   15.3440 C.3   109  ALA109      0.0290
    118  N         29.6970   -8.2060   14.0570 N.3   111  GLU111     -0.1245
    119  CA        30.2430   -9.3100   13.2720 C.3   111  GLU111      0.1567
    120  C         29.4280  -10.5760   13.4860 C.2   111  GLU111      0.2260
    121  O         28.6960  -10.7000   14.4800 O.2   111  GLU111     -0.2867
    122  CB        31.6880   -9.6370   13.7070 C.3   111  GLU111      0.0388
    123  CG        32.7420   -8.5810   13.4380 C.3   111  GLU111      0.1160
    124  CD        34.1580   -9.1650   13.4570 C.2   111  GLU111      0.3649
    125  OE1       34.5870   -9.6640   14.5130 O.co2 111  GLU111     -0.2457
    126  OE2       34.8380   -9.1270   12.4140 O.co2 111  GLU111     -0.2457
    127  N         30.3720   -6.5630   18.8180 N.3   118  VAL118     -0.1231
    128  CA        31.5730   -7.2260   19.3130 C.3   118  VAL118      0.1692
    129  C         32.6150   -6.2030   19.7330 C.2   118  VAL118      0.2592
    130  O         33.6120   -6.5480   20.3600 O.2   118  VAL118     -0.2718
    131  CB        32.1920   -8.1770   18.2450 C.3   118  VAL118      0.0266
    132  CG1       31.2320   -9.2980   17.9340 C.3   118  VAL118      0.0020
    133  CG2       32.5420   -7.4120   16.9660 C.3   118  VAL118      0.0020
    134  N         32.3590   -4.9370   19.4170 N.am  119  HIS119     -0.1962
    135  CA        33.2920   -3.8760   19.7430 C.3   119  HIS119      0.1787
    136  C         32.5750   -2.5210   19.9050 C.2   119  HIS119      0.2620
    137  O         31.6340   -2.2110   19.1430 O.2   119  HIS119     -0.2715
    138  CB        34.3590   -3.8320   18.6150 C.3   119  HIS119      0.0785
    139  CG        35.1130   -2.5400   18.5060 C.ar  119  HIS119      0.0821
    140  ND1       36.2160   -2.2530   19.2790 N.ar  119  HIS119     -0.2267
    141  CD2       34.9400   -1.4730   17.6890 C.ar  119  HIS119      0.1154
    142  CE1       36.6910   -1.0630   18.9450 C.ar  119  HIS119      0.1986
    143  NE2       35.9350   -0.5680   17.9810 N.ar  119  HIS119     -0.2212
    144  N         32.9980   -1.7390   20.9120 N.am  120  PHE120     -0.1960
    145  CA        32.4550   -0.3860   21.1320 C.3   120  PHE120      0.1771
    146  C         33.4370    0.5800   20.4910 C.2   120  PHE120      0.2620
    147  O         34.5550    0.7550   20.9800 O.2   120  PHE120     -0.2715
    148  CB        32.3460   -0.0310   22.6120 C.3   120  PHE120      0.0574
    149  CG        31.6250    1.2820   22.8620 C.ar  120  PHE120     -0.0200
    150  CD1       30.2660    1.2900   23.2040 C.ar  120  PHE120     -0.0042
    151  CD2       32.2950    2.5000   22.7250 C.ar  120  PHE120     -0.0042
    152  CE1       29.5890    2.4860   23.4020 C.ar  120  PHE120     -0.0003
    153  CE2       31.6270    3.7110   22.9230 C.ar  120  PHE120     -0.0003
    154  CZ        30.2710    3.7040   23.2620 C.ar  120  PHE120     -0.0000
    155  N         33.0210    1.2170   19.4070 N.am  121  ASP121     -0.1957
    156  CA        33.9140    2.1170   18.7080 C.3   121  ASP121      0.1840
    157  C         33.9460    3.5410   19.2180 C.2   121  ASP121      0.2622
    158  O         35.0300    4.1110   19.4450 O.2   121  ASP121     -0.2715
    159  CB        33.5880    2.1190   17.2180 C.3   121  ASP121      0.1450
    160  CG        34.8280    2.3390   16.3520 C.2   121  ASP121      0.3671
    161  OD1       35.8550    1.6630   16.5940 O.co2 121  ASP121     -0.2456
    162  OD2       34.7730    3.1830   15.4400 O.co2 121  ASP121     -0.2456
    163  N         32.7690    4.1250   19.4090 N.am  122  ALA122     -0.1963
    164  CA        32.7190    5.5000   19.8680 C.3   122  ALA122      0.1728
    165  C         31.3200    5.9380   20.2770 C.2   122  ALA122      0.2616
    166  O         30.3480    5.2210   20.0610 O.2   122  ALA122     -0.2715
    167  CB        33.2460    6.4210   18.7520 C.3   122  ALA122      0.0334
    168  N         31.2440    7.1170   20.8890 N.am  123  SER123     -0.1950
    169  CA        29.9690    7.7090   21.2840 C.3   123  SER123      0.1924
    170  C         30.0520    9.1250   20.7070 C.2   123  SER123      0.2314
    171  O         31.1240    9.7180   20.6780 O.2   123  SER123     -0.2863
    172  CB        29.8060    7.7100   22.8160 C.3   123  SER123      0.2116
    173  OG        30.2530    8.9130   23.4100 O.3   123  SER123     -0.2180
@<TRIPOS>BOND
     1    90    89    1
     2    90    91    2
     3    89    88    1
     4    89    92    1
     5    97    98    1
     6    93    92    1
     7    93    94    1
     8    83    82    2
     9    98   101    1
    10    98    99    1
    11    96    94   am
    12   101   102    1
    13    94    95    2
    14    82    81    1
    15    65    66    1
    16    68    67    2
    17   103   102    2
    18   102   104   am
    19    99   100    2
    20    86    85    2
    21    66    69    1
    22    66    67    1
    23    69    70    1
    24    67    71   am
    25    81    80    1
    26    81    84    1
    27    85    87   am
    28    85    84    1
    29    74    73    2
    30   126   124   ar
    31    80    73   am
    32    73    72    1
    33    71    72    1
    34   119   120    1
    35   119   122    1
    36   119   118    1
    37   123   124    1
    38   123   122    1
    39    72    75    1
    40   124   125   ar
    41   120   121    2
    42    75    76    1
    43   117   114    1
    44   114   115    1
    45   114   113    1
    46   162   160   ar
    47    76    77    1
    48   115   116    2
    49   160   161   ar
    50   160   159    1
    51    77    78    1
    52   133   131    1
    53   159   156    1
    54   141   143   ar
    55   141   139   ar
    56    78    79    1
    57   132   131    1
    58   143   142   ar
    59   131   128    1
    60   139   138    1
    61   139   140   ar
    62   138   135    1
    63   156   157    1
    64   156   155    1
    65   167   164    1
    66   127   128    1
    67   142   140   ar
    68   137   136    2
    69   157   163   am
    70   157   158    2
    71   128   129    1
    72   155   146   am
    73   163   164    1
    74   134   129   am
    75   134   135    1
    76     5     2    1
    77   129   130    2
    78   135   136    1
    79   164   165    1
    80   136   144   am
    81   166   165    2
    82   165   168   am
    83   146   147    2
    84   146   145    1
    85   171   170    2
    86   170   169    1
    87   168   169    1
    88   144   145    1
    89     2     1    1
    90     2     3    1
    91   145   148    1
    92   169   172    1
    93     3     4    2
    94   148   149    1
    95   151   149   ar
    96   151   153   ar
    97   172   173    1
    98   149   150   ar
    99   153   154   ar
   100   150   152   ar
   101   154   152   ar
   102    14    13    1
   103    12    13    1
   104    12    11    1
   105    10    11    1
   106    10     7    1
   107    33    31   ar
   108    33    32   ar
   109    31    29   ar
   110     6     7    1
   111    32    30   ar
   112     8     7    1
   113     8     9    2
   114    29    30   ar
   115    29    28    1
   116    23    21   am
   117    48    47    1
   118    28    25    1
   119    63    62    1
   120    64    62    1
   121    62    59    1
   122    42    41    1
   123    49    47    1
   124    21    22    2
   125    21    20    1
   126    46    45    2
   127    47    44    1
   128   111   110   ar
   129    41    40    1
   130   112   110   ar
   131    19    20    1
   132    19    16    1
   133    25    24    1
   134    25    26    1
   135    61    60    2
   136    24    17   am
   137    58    59    1
   138    58    52   am
   139    27    26    2
   140    59    60    1
   141   110   109    1
   142    56    55    2
   143    45    44    1
   144    45    50   am
   145    44    43    1
   146    17    16    1
   147    17    18    2
   148    51    52    1
   149    51    50    1
   150    51    54    1
   151    16    15    1
   152    52    53    2
   153    40    39    1
   154    55    54    1
   155    55    57   am
   156    39    38    1
   157   109   106    1
   158   106   105    1
   159   106   107    1
   160    38    35    1
   161    35    36    1
   162    35    34    1
   163    36    37    2
   164   107   108    2
