@<TRIPOS>MOLECULE
tmp/1jndA00.pdb
 105 105 0 0 0
SMALL
GASTEIGER

@<TRIPOS>ATOM
      1  N         67.1990   61.9170    7.2430 N.3   135  ASN135     -0.1240
      2  CA        65.8630   62.5170    7.4080 C.3   135  ASN135      0.1653
      3  C         65.7560   63.1470    8.8040 C.2   135  ASN135      0.2266
      4  O         66.2430   62.5520    9.7880 O.2   135  ASN135     -0.2867
      5  CB        64.7960   61.4480    7.2970 C.3   135  ASN135      0.1155
      6  CG        64.6390   60.7490    5.9540 C.2   135  ASN135      0.2627
      7  OD1       64.6630   61.5030    4.9680 O.2   135  ASN135     -0.2716
      8  ND2       64.4550   59.4700    5.9300 N.am  135  ASN135     -0.0877
      9  N         68.9650   57.4780    5.6860 N.3   179  VAL179     -0.1231
     10  CA        69.5990   58.2470    4.5780 C.3   179  VAL179      0.1692
     11  C         68.6340   58.2180    3.3880 C.2   179  VAL179      0.2592
     12  O         68.1480   57.1860    2.9670 O.2   179  VAL179     -0.2718
     13  CB        70.9890   57.7170    4.1990 C.3   179  VAL179      0.0266
     14  CG1       71.5150   58.3540    2.9340 C.3   179  VAL179      0.0020
     15  CG2       71.9620   57.9830    5.3720 C.3   179  VAL179      0.0020
     16  N         68.3670   59.4450    2.9190 N.am  180  ASN180     -0.1960
     17  CA        67.3170   59.6220    1.8910 C.3   180  ASN180      0.1819
     18  C         67.9020   59.5300    0.4760 C.2   180  ASN180      0.2622
     19  O         68.7110   60.3790    0.0570 O.2   180  ASN180     -0.2715
     20  CB        66.6460   60.9670    2.1440 C.3   180  ASN180      0.1195
     21  CG        65.4000   61.1110    1.3020 C.2   180  ASN180      0.2630
     22  OD1       65.4930   61.1420    0.0620 O.2   180  ASN180     -0.2716
     23  ND2       64.2440   61.1610    1.9440 N.am  180  ASN180     -0.0877
     24  N         67.4930   58.5040   -0.2420 N.am  181  SER181     -0.1936
     25  CA        68.0800   58.2350   -1.5600 C.3   181  SER181      0.2055
     26  C         67.6330   59.2900   -2.5770 C.2   181  SER181      0.2644
     27  O         68.3950   59.5260   -3.5200 O.2   181  SER181     -0.2714
     28  CB        67.6430   56.8580   -2.0280 C.3   181  SER181      0.2130
     29  OG        68.1470   55.8140   -1.2270 O.3   181  SER181     -0.2179
     30  N         66.4880   59.9150   -2.3930 N.am  182  THR182     -0.1936
     31  CA        66.0600   60.9560   -3.3190 C.3   182  THR182      0.2028
     32  C         67.0320   62.1010   -3.1840 C.2   182  THR182      0.2642
     33  O         67.4180   62.7430   -4.1950 O.2   182  THR182     -0.2714
     34  CB        64.6520   61.4360   -2.9640 C.3   182  THR182      0.1808
     35  OG1       63.8000   60.3050   -2.7770 O.3   182  THR182     -0.2208
     36  CG2       64.1210   62.3100   -4.1180 C.3   182  THR182      0.0379
     37  N         67.4640   62.4380   -1.9620 N.am  183  TRP183     -0.1973
     38  CA        68.3310   63.5930   -1.8180 C.3   183  TRP183      0.1640
     39  C         69.7030   63.3510   -2.4330 C.2   183  TRP183      0.2290
     40  O         70.2590   64.2840   -2.9940 O.2   183  TRP183     -0.2864
     41  CB        68.5850   63.9160   -0.3230 C.3   183  TRP183      0.0576
     42  CG        67.3400   64.2300    0.4650 C.ar  183  TRP183      0.0006
     43  CD1       66.0580   64.2890    0.0180 C.ar  183  TRP183      0.0946
     44  CD2       67.3190   64.5220    1.8840 C.ar  183  TRP183      0.0152
     45  NE1       65.2220   64.6080    1.0860 N.ar  183  TRP183     -0.2442
     46  CE2       65.9850   64.7470    2.2120 C.ar  183  TRP183      0.0810
     47  CE3       68.3230   64.6000    2.8520 C.ar  183  TRP183      0.0012
     48  CZ2       65.6000   65.0600    3.5420 C.ar  183  TRP183      0.0191
     49  CZ3       67.9490   64.9170    4.1780 C.ar  183  TRP183      0.0001
     50  CH2       66.5990   65.1310    4.4480 C.ar  183  TRP183      0.0015
     51  N         55.1490   57.8470    8.9160 N.3   230  LEU230     -0.1231
     52  CA        55.6940   58.3220    7.6400 C.3   230  LEU230      0.1693
     53  C         55.7430   57.2070    6.6110 C.2   230  LEU230      0.2592
     54  O         56.3060   56.1350    6.8700 O.2   230  LEU230     -0.2718
     55  CB        57.0860   58.8790    7.9640 C.3   230  LEU230      0.0284
     56  CG        57.0720   60.2290    8.6920 C.3   230  LEU230      0.0019
     57  CD1       58.5020   60.5970    9.1020 C.3   230  LEU230      0.0001
     58  CD2       56.4780   61.3120    7.8160 C.3   230  LEU230      0.0001
     59  N         55.1730   57.3620    5.4190 N.am  231  ALA231     -0.1966
     60  CA        54.9690   56.2730    4.4770 C.3   231  ALA231      0.1728
     61  C         56.2300   55.7790    3.7640 C.2   231  ALA231      0.2616
     62  O         56.1420   54.6930    3.1810 O.2   231  ALA231     -0.2715
     63  CB        53.9920   56.6870    3.3640 C.3   231  ALA231      0.0334
     64  N         57.3060   56.5700    3.8250 N.am  232  HIS232     -0.1973
     65  CA        58.5260   56.0630    3.1670 C.3   232  HIS232      0.1656
     66  C         59.3300   55.1620    4.0950 C.2   232  HIS232      0.2291
     67  O         60.3320   54.5490    3.6650 O.2   232  HIS232     -0.2864
     68  CB        59.3710   57.2250    2.6670 C.3   232  HIS232      0.0771
     69  CG        59.6410   58.3130    3.6760 C.ar  232  HIS232      0.0820
     70  ND1       58.6560   59.1430    4.1910 N.ar  232  HIS232     -0.2267
     71  CD2       60.7780   58.7080    4.2810 C.ar  232  HIS232      0.1154
     72  CE1       59.1810   60.0000    5.0410 C.ar  232  HIS232      0.1986
     73  NE2       60.4860   59.7550    5.1190 N.ar  232  HIS232     -0.2212
     74  N         59.1480   50.2000    0.4130 N.3   237  PHE237     -0.1227
     75  CA        59.1580   51.5120   -0.2300 C.3   237  PHE237      0.1736
     76  C         60.5660   51.7910   -0.7030 C.2   237  PHE237      0.2595
     77  O         60.8070   52.2870   -1.8250 O.2   237  PHE237     -0.2718
     78  CB        58.6920   52.5800    0.7660 C.3   237  PHE237      0.0547
     79  CG        58.6180   53.9540    0.1210 C.ar  237  PHE237     -0.0202
     80  CD1       57.4180   54.3840   -0.4160 C.ar  237  PHE237     -0.0042
     81  CD2       59.7250   54.7670    0.0530 C.ar  237  PHE237     -0.0042
     82  CE1       57.3500   55.6540   -1.0030 C.ar  237  PHE237     -0.0003
     83  CE2       59.6700   56.0440   -0.5390 C.ar  237  PHE237     -0.0003
     84  CZ        58.4620   56.4670   -1.0960 C.ar  237  PHE237     -0.0000
     85  N         61.5820   51.5020    0.1300 N.am  238  GLN238     -0.1979
     86  CA        62.9720   51.7850   -0.2320 C.3   238  GLN238      0.1601
     87  C         63.4130   50.9370   -1.4220 C.2   238  GLN238      0.2287
     88  O         64.0530   51.4590   -2.3580 O.2   238  GLN238     -0.2864
     89  CB        63.8870   51.4940    0.9900 C.3   238  GLN238      0.0394
     90  CG        63.5930   52.4170    2.1620 C.3   238  GLN238      0.0908
     91  CD        63.7940   53.8860    1.7940 C.2   238  GLN238      0.2608
     92  OE1       64.8760   54.1760    1.2230 O.2   238  GLN238     -0.2717
     93  NE2       62.8700   54.7860    2.0980 N.am  238  GLN238     -0.0878
     94  N         61.8390   52.0360   -4.6310 N.3   241  TYR241     -0.1241
     95  CA        62.3820   53.2880   -5.1170 C.3   241  TYR241      0.1605
     96  C         63.6380   52.9450   -5.9390 C.2   241  TYR241      0.2264
     97  O         63.7590   53.4690   -7.1050 O.2   241  TYR241     -0.2867
     98  CB        62.6690   54.2830   -3.9970 C.3   241  TYR241      0.0534
     99  CG        63.2310   55.5740   -4.5430 C.ar  241  TYR241     -0.0201
    100  CD1       62.3780   56.4830   -5.1460 C.ar  241  TYR241     -0.0009
    101  CD2       64.5710   55.8930   -4.4260 C.ar  241  TYR241     -0.0009
    102  CE1       62.8670   57.6710   -5.6410 C.ar  241  TYR241      0.0417
    103  CE2       65.0610   57.1010   -4.9370 C.ar  241  TYR241      0.0417
    104  CZ        64.2020   57.9920   -5.5340 C.ar  241  TYR241      0.1957
    105  OH        64.7140   59.1880   -6.0600 O.3   241  TYR241     -0.2866
@<TRIPOS>BOND
     1    97    96    2
     2   105   104    1
     3    96    95    1
     4   102   104   ar
     5   102   100   ar
     6   104   103   ar
     7   100    99   ar
     8    95    94    1
     9    95    98    1
    10   103   101   ar
    11    99   101   ar
    12    99    98    1
    13    33    32    2
    14    36    34    1
    15    27    26    2
    16    31    32    1
    17    31    34    1
    18    31    30    1
    19    32    37   am
    20    40    39    2
    21    34    35    1
    22    26    30   am
    23    26    25    1
    24    39    38    1
    25    88    87    2
    26    28    25    1
    27    28    29    1
    28    37    38    1
    29    77    76    2
    30    38    41    1
    31    25    24    1
    32    87    86    1
    33    84    82   ar
    34    84    83   ar
    35    82    80   ar
    36    76    75    1
    37    76    85   am
    38    83    81   ar
    39    80    79   ar
    40    41    42    1
    41    24    18   am
    42    86    85    1
    43    86    89    1
    44    75    74    1
    45    75    78    1
    46    43    42   ar
    47    43    45   ar
    48    81    79   ar
    49    19    18    2
    50    22    21    2
    51    79    78    1
    52    42    44   ar
    53    18    17    1
    54    89    90    1
    55    45    46   ar
    56    92    91    2
    57    21    23   am
    58    21    20    1
    59    91    93   am
    60    91    90    1
    61    44    46   ar
    62    44    47   ar
    63    17    20    1
    64    17    16    1
    65    46    48   ar
    66    68    65    1
    67    68    69    1
    68    47    49   ar
    69    16    11   am
    70    14    13    1
    71    12    11    2
    72    65    64    1
    73    65    66    1
    74    62    61    2
    75    63    60    1
    76    11    10    1
    77    48    50   ar
    78    67    66    2
    79    69    70   ar
    80    69    71   ar
    81    61    64   am
    82    61    60    1
    83    49    50   ar
    84    70    72   ar
    85    13    10    1
    86    13    15    1
    87    71    73   ar
    88    60    59    1
    89    10     9    1
    90     7     6    2
    91    72    73   ar
    92    59    53   am
    93     8     6   am
    94     6     5    1
    95    53    54    2
    96    53    52    1
    97     1     2    1
    98     5     2    1
    99     2     3    1
   100    52    55    1
   101    52    51    1
   102    58    56    1
   103    55    56    1
   104    56    57    1
   105     3     4    2
