@<TRIPOS>MOLECULE
tmp/1jneA00.pdb
 126 124 0 0 0
SMALL
GASTEIGER

@<TRIPOS>ATOM
      1  N         26.7600  -10.9090   13.6010 N.3   135  ASN135     -0.1240
      2  CA        26.9360  -11.5350   14.9010 C.3   135  ASN135      0.1653
      3  C         26.0200  -12.7590   14.9600 C.2   135  ASN135      0.2266
      4  O         24.8840  -12.6880   14.4850 O.2   135  ASN135     -0.2867
      5  CB        26.6040  -10.6200   16.0730 C.3   135  ASN135      0.1155
      6  CG        27.5870   -9.4860   16.2480 C.2   135  ASN135      0.2627
      7  OD1       28.8020   -9.6410   16.1280 O.2   135  ASN135     -0.2716
      8  ND2       27.1100   -8.2910   16.5450 N.am  135  ASN135     -0.0877
      9  N         26.2300   -6.1800   12.1310 N.3   179  VAL179     -0.1231
     10  CA        27.4950   -6.3610   11.4070 C.3   179  VAL179      0.1692
     11  C         28.6030   -5.8630   12.3410 C.2   179  VAL179      0.2592
     12  O         28.5750   -4.7750   12.9260 O.2   179  VAL179     -0.2718
     13  CB        27.5400   -5.6370   10.0630 C.3   179  VAL179      0.0266
     14  CG1       28.9460   -5.6470    9.4690 C.3   179  VAL179      0.0020
     15  CG2       26.5790   -6.2580    9.0390 C.3   179  VAL179      0.0020
     16  N         29.6210   -6.6900   12.5300 N.am  180  ASN180     -0.1960
     17  CA        30.6440   -6.4530   13.5340 C.3   180  ASN180      0.1819
     18  C         31.8670   -5.7910   12.8970 C.2   180  ASN180      0.2622
     19  O         32.4500   -6.4360   12.0270 O.2   180  ASN180     -0.2715
     20  CB        31.0170   -7.8020   14.1420 C.3   180  ASN180      0.1195
     21  CG        31.9970   -7.7140   15.2930 C.2   180  ASN180      0.2630
     22  OD1       33.0990   -7.1830   15.1570 O.2   180  ASN180     -0.2716
     23  ND2       31.5590   -8.2510   16.4240 N.am  180  ASN180     -0.0877
     24  N         32.1830   -4.5930   13.3270 N.am  181  SER181     -0.1936
     25  CA        33.2320   -3.7770   12.7360 C.3   181  SER181      0.2055
     26  C         34.6110   -4.3450   13.0600 C.2   181  SER181      0.2644
     27  O         35.5680   -4.1190   12.3220 O.2   181  SER181     -0.2714
     28  CB        33.1280   -2.3320   13.2000 C.3   181  SER181      0.2130
     29  OG        31.8270   -1.8060   12.9700 O.3   181  SER181     -0.2179
     30  N         34.7420   -5.0960   14.1480 N.am  182  THR182     -0.1936
     31  CA        36.0280   -5.7380   14.4230 C.3   182  THR182      0.2028
     32  C         36.3800   -6.7730   13.3740 C.2   182  THR182      0.2642
     33  O         37.5220   -6.9910   12.9560 O.2   182  THR182     -0.2714
     34  CB        35.9880   -6.4430   15.7960 C.3   182  THR182      0.1808
     35  OG1       35.4530   -5.5310   16.7590 O.3   182  THR182     -0.2208
     36  CG2       37.3970   -6.8040   16.2270 C.3   182  THR182      0.0379
     37  N         35.3640   -7.4940   12.9020 N.am  183  TRP183     -0.1973
     38  CA        35.6330   -8.5580   11.9520 C.3   183  TRP183      0.1640
     39  C         35.9250   -8.0240   10.5530 C.2   183  TRP183      0.2290
     40  O         36.7530   -8.6120    9.8500 O.2   183  TRP183     -0.2864
     41  CB        34.4480   -9.5180   11.8370 C.3   183  TRP183      0.0576
     42  CG        33.9790  -10.1620   13.0970 C.ar  183  TRP183      0.0006
     43  CD1       34.4650  -10.0840   14.3630 C.ar  183  TRP183      0.0946
     44  CD2       32.8390  -11.0380   13.1670 C.ar  183  TRP183      0.0152
     45  NE1       33.7060  -10.8550   15.2270 N.ar  183  TRP183     -0.2442
     46  CE2       32.7060  -11.4460   14.5100 C.ar  183  TRP183      0.0810
     47  CE3       31.9390  -11.4970   12.2000 C.ar  183  TRP183      0.0012
     48  CZ2       31.6880  -12.3060   14.9060 C.ar  183  TRP183      0.0191
     49  CZ3       30.9300  -12.3510   12.6050 C.ar  183  TRP183      0.0001
     50  CH2       30.8200  -12.7400   13.9400 C.ar  183  TRP183      0.0015
     51  N         24.1530    0.7590   27.5120 N.3   222  HIS222     -0.1241
     52  CA        23.9070   -0.6090   27.9450 C.3   222  HIS222      0.1621
     53  C         22.9650   -0.6200   29.1450 C.2   222  HIS222      0.2264
     54  O         23.2180    0.0430   30.1500 O.2   222  HIS222     -0.2867
     55  CB        25.2030   -1.3490   28.2930 C.3   222  HIS222      0.0745
     56  CG        24.9770   -2.7820   28.6740 C.ar  222  HIS222      0.0817
     57  ND1       24.8100   -3.1660   29.9940 N.ar  222  HIS222     -0.2268
     58  CD2       24.8830   -3.9180   27.9580 C.ar  222  HIS222      0.1154
     59  CE1       24.6230   -4.4730   30.0690 C.ar  222  HIS222      0.1986
     60  NE2       24.6680   -4.9500   28.8330 N.ar  222  HIS222     -0.2212
     61  N         21.9300   -2.2630   32.3010 N.3   224  ASP224     -0.1239
     62  CA        22.2970   -3.2520   33.3060 C.3   224  ASP224      0.1674
     63  C         21.1350   -4.1420   33.7340 C.2   224  ASP224      0.2266
     64  O         21.3360   -5.2910   34.1160 O.2   224  ASP224     -0.2867
     65  CB        22.8630   -2.5550   34.5480 C.3   224  ASP224      0.1410
     66  CG        24.1790   -1.8540   34.2670 C.2   224  ASP224      0.3668
     67  OD1       25.1290   -2.5390   33.8330 O.co2 224  ASP224     -0.2456
     68  OD2       24.2360   -0.6230   34.4850 O.co2 224  ASP224     -0.2456
     69  N         22.7720   -9.3930   28.7940 N.3   229  ARG229     -0.1245
     70  CA        22.8030   -8.7470   27.4740 C.3   229  ARG229      0.1563
     71  C         24.2420   -8.4430   27.0610 C.2   229  ARG229      0.2260
     72  O         25.0160   -7.8870   27.8350 O.2   229  ARG229     -0.2867
     73  CB        21.9530   -7.4810   27.4850 C.3   229  ARG229      0.0307
     74  CG        21.8500   -6.7630   26.1490 C.3   229  ARG229      0.0489
     75  CD        21.5870   -5.2740   26.3340 C.3   229  ARG229      0.2205
     76  NE        21.6000   -4.6320   25.0120 N.pl3 229  ARG229     -0.0865
     77  CZ        20.5220   -4.6000   24.2310 C.cat 229  ARG229      0.5346
     78  NH1       19.3840   -5.1460   24.6420 N.pl3 229  ARG229      0.1354
     79  NH2       20.5670   -4.0180   23.0420 N.pl3 229  ARG229      0.1354
     80  N         27.3910   -6.6570   25.8530 N.3   231  ALA231     -0.1231
     81  CA        27.6670   -5.2510   26.0860 C.3   231  ALA231      0.1694
     82  C         28.0640   -4.4470   24.8570 C.2   231  ALA231      0.2592
     83  O         28.1090   -3.2170   24.9250 O.2   231  ALA231     -0.2718
     84  CB        28.7780   -5.1210   27.1280 C.3   231  ALA231      0.0304
     85  N         28.3470   -5.1030   23.7290 N.am  232  HIS232     -0.1976
     86  CA        28.6180   -4.3280   22.5190 C.3   232  HIS232      0.1656
     87  C         27.3060   -4.0120   21.7890 C.2   232  HIS232      0.2291
     88  O         27.3000   -3.2770   20.8170 O.2   232  HIS232     -0.2864
     89  CB        29.5730   -5.0840   21.6010 C.3   232  HIS232      0.0771
     90  CG        29.1350   -6.4750   21.2690 C.ar  232  HIS232      0.0820
     91  ND1       29.1520   -7.4840   22.2090 N.ar  232  HIS232     -0.2267
     92  CD2       28.6780   -7.0430   20.1380 C.ar  232  HIS232      0.1154
     93  CE1       28.7230   -8.6070   21.6660 C.ar  232  HIS232      0.1986
     94  NE2       28.4300   -8.3690   20.4160 N.ar  232  HIS232     -0.2212
     95  N         28.3030    2.0100   22.4180 N.3   237  PHE237     -0.1227
     96  CA        29.4390    1.1360   22.1900 C.3   237  PHE237      0.1736
     97  C         29.8970    1.2010   20.7320 C.2   237  PHE237      0.2595
     98  O         31.0980    1.3070   20.4750 O.2   237  PHE237     -0.2718
     99  CB        29.1300   -0.3280   22.5430 C.3   237  PHE237      0.0547
    100  CG        30.3880   -1.1660   22.3600 C.ar  237  PHE237     -0.0202
    101  CD1       31.2720   -1.2990   23.4260 C.ar  237  PHE237     -0.0042
    102  CD2       30.6790   -1.7860   21.1660 C.ar  237  PHE237     -0.0042
    103  CE1       32.4270   -2.0420   23.2630 C.ar  237  PHE237     -0.0003
    104  CE2       31.8330   -2.5350   20.9980 C.ar  237  PHE237     -0.0003
    105  CZ        32.7160   -2.6610   22.0580 C.ar  237  PHE237     -0.0000
    106  N         28.9720    1.1310   19.7760 N.am  238  GLN238     -0.1979
    107  CA        29.3470    1.1590   18.3590 C.3   238  GLN238      0.1601
    108  C         30.0400    2.4530   17.9520 C.2   238  GLN238      0.2287
    109  O         31.0490    2.4320   17.2240 O.2   238  GLN238     -0.2864
    110  CB        28.1050    0.9380   17.4770 C.3   238  GLN238      0.0394
    111  CG        27.4950   -0.4470   17.6730 C.3   238  GLN238      0.0908
    112  CD        28.5300   -1.5150   17.3530 C.2   238  GLN238      0.2608
    113  OE1       29.1640   -1.4260   16.3090 O.2   238  GLN238     -0.2717
    114  NE2       28.7350   -2.5040   18.2230 N.am  238  GLN238     -0.0878
    115  N         33.3680    2.7320   19.5630 N.3   241  TYR241     -0.1241
    116  CA        34.2510    1.8260   18.8460 C.3   241  TYR241      0.1605
    117  C         34.8450    2.5140   17.6120 C.2   241  TYR241      0.2264
    118  O         36.0740    2.5140   17.4160 O.2   241  TYR241     -0.2867
    119  CB        33.5530    0.5180   18.4290 C.3   241  TYR241      0.0534
    120  CG        34.5520   -0.4250   17.7830 C.ar  241  TYR241     -0.0201
    121  CD1       35.3710   -1.2350   18.5660 C.ar  241  TYR241     -0.0009
    122  CD2       34.6770   -0.4980   16.4060 C.ar  241  TYR241     -0.0009
    123  CE1       36.3000   -2.1140   18.0450 C.ar  241  TYR241      0.0417
    124  CE2       35.6170   -1.3690   15.8780 C.ar  241  TYR241      0.0417
    125  CZ        36.4190   -2.1600   16.6680 C.ar  241  TYR241      0.1957
    126  OH        37.3330   -3.0220   16.0910 O.3   241  TYR241     -0.2866
@<TRIPOS>BOND
     1    15    13    1
     2    14    13    1
     3    40    39    2
     4    13    10    1
     5    39    38    1
     6    10     9    1
     7    10    11    1
     8    41    38    1
     9    41    42    1
    10    38    37    1
    11    19    18    2
    12    47    49   ar
    13    47    44   ar
    14    27    26    2
    15    11    16   am
    16    11    12    2
    17    16    17    1
    18    49    50   ar
    19    25    26    1
    20    25    28    1
    21    25    24    1
    22    18    24   am
    23    18    17    1
    24    37    32   am
    25    33    32    2
    26    29    28    1
    27    26    30   am
    28    42    44   ar
    29    42    43   ar
    30    44    46   ar
    31    32    31    1
    32    17    20    1
    33     1     2    1
    34    50    48   ar
    35    20    21    1
    36    30    31    1
    37    43    45   ar
    38    31    34    1
    39     4     3    2
    40    46    48   ar
    41    46    45   ar
    42     2     3    1
    43     2     5    1
    44    22    21    2
    45    21    23   am
    46    34    36    1
    47    34    35    1
    48   124   122   ar
    49   124   125   ar
    50     5     6    1
    51   126   125    1
    52     7     6    2
    53     6     8   am
    54   113   112    2
    55   122   120   ar
    56   125   123   ar
    57   109   108    2
    58   112   111    1
    59   112   114   am
    60   118   117    2
    61   110   111    1
    62   110   107    1
    63   117   116    1
    64   120   119    1
    65   120   121   ar
    66   108   107    1
    67   123   121   ar
    68   107   106    1
    69   119   116    1
    70   116   115    1
    71   106    97   am
    72    92    94   ar
    73    92    90   ar
    74    94    93   ar
    75    98    97    2
    76    97    96    1
    77    88    87    2
    78   104   102   ar
    79   104   105   ar
    80   102   100   ar
    81    90    89    1
    82    90    91   ar
    83    89    86    1
    84    93    91   ar
    85    87    86    1
    86   105   103   ar
    87    96    95    1
    88    96    99    1
    89   100    99    1
    90   100   101   ar
    91    86    85    1
    92    79    77    1
    93   103   101   ar
    94    85    82   am
    95    77    78    1
    96    77    76    2
    97    82    83    2
    98    82    81    1
    99    76    75    1
   100    80    81    1
   101    81    84    1
   102    74    75    1
   103    74    73    1
   104    71    70    1
   105    71    72    2
   106    70    73    1
   107    70    69    1
   108    51    52    1
   109    52    55    1
   110    52    53    1
   111    58    56   ar
   112    58    60   ar
   113    55    56    1
   114    56    57   ar
   115    60    59   ar
   116    53    54    2
   117    57    59   ar
   118    61    62    1
   119    62    63    1
   120    62    65    1
   121    63    64    2
   122    67    66   ar
   123    66    68   ar
   124    66    65    1
