@<TRIPOS>MOLECULE
tmp/1jnhH00.pdb
 101 99 0 0 0
SMALL
GASTEIGER

@<TRIPOS>ATOM
      1  N         59.0120   82.4070   24.6590 N.3    33  TRP33      -0.1241
      2  CA        58.1220   82.4410   25.8060 C.3    33  TRP33       0.1605
      3  C         58.2350   83.8190   26.4470 C.2    33  TRP33       0.2264
      4  O         59.2160   84.5560   26.2390 O.2    33  TRP33      -0.2867
      5  CB        58.4950   81.3930   26.8520 C.3    33  TRP33       0.0550
      6  CG        58.0380   80.0030   26.5620 C.ar   33  TRP33       0.0003
      7  CD1       58.7490   79.0180   25.9460 C.ar   33  TRP33       0.0946
      8  CD2       56.7990   79.4140   26.9560 C.ar   33  TRP33       0.0152
      9  NE1       58.0380   77.8460   25.9440 N.ar   33  TRP33      -0.2442
     10  CE2       56.8350   78.0590   26.5580 C.ar   33  TRP33       0.0810
     11  CE3       55.6600   79.8980   27.6130 C.ar   33  TRP33       0.0012
     12  CZ2       55.7790   77.1770   26.7960 C.ar   33  TRP33       0.0191
     13  CZ3       54.6050   79.0200   27.8500 C.ar   33  TRP33       0.0001
     14  CH2       54.6760   77.6710   27.4410 C.ar   33  TRP33       0.0015
     15  N         57.5510   85.3690   30.3560 N.3    35  GLN35      -0.1245
     16  CA        57.1750   85.0870   31.7370 C.3    35  GLN35       0.1566
     17  C         57.1230   86.3500   32.5490 C.2    35  GLN35       0.2260
     18  O         57.8080   87.3260   32.2570 O.2    35  GLN35      -0.2867
     19  CB        58.1650   84.1450   32.4240 C.3    35  GLN35       0.0367
     20  CG        58.8010   83.1390   31.5240 C.3    35  GLN35       0.0905
     21  CD        60.1150   83.6150   31.0200 C.2    35  GLN35       0.2608
     22  OE1       61.0470   83.7760   31.7850 O.2    35  GLN35      -0.2717
     23  NE2       60.2040   83.8570   29.7290 N.am   35  GLN35      -0.0878
     24  N         57.8710   83.8210   40.6880 N.3    47  TRP47      -0.1241
     25  CA        57.3990   83.4340   39.3720 C.3    47  TRP47       0.1605
     26  C         55.8850   83.4110   39.3010 C.2    47  TRP47       0.2264
     27  O         55.2400   82.7560   40.1120 O.2    47  TRP47      -0.2867
     28  CB        57.9510   82.0630   39.0320 C.3    47  TRP47       0.0550
     29  CG        57.6490   81.6560   37.6730 C.ar   47  TRP47       0.0003
     30  CD1       56.4470   81.2260   37.1900 C.ar   47  TRP47       0.0946
     31  CD2       58.5600   81.6460   36.5760 C.ar   47  TRP47       0.0152
     32  NE1       56.5570   80.9450   35.8510 N.ar   47  TRP47      -0.2442
     33  CE2       57.8450   81.1960   35.4480 C.ar   47  TRP47       0.0810
     34  CE3       59.9140   81.9800   36.4370 C.ar   47  TRP47       0.0012
     35  CZ2       58.4350   81.0670   34.1970 C.ar   47  TRP47       0.0191
     36  CZ3       60.5040   81.8550   35.1970 C.ar   47  TRP47       0.0001
     37  CH2       59.7640   81.4000   34.0890 C.ar   47  TRP47       0.0015
     38  N         53.6020   82.2790   32.4120 N.3    50  ALA50      -0.1245
     39  CA        54.3450   82.4540   31.1760 C.3    50  ALA50       0.1562
     40  C         53.3670   82.1700   30.0490 C.2    50  ALA50       0.2260
     41  O         52.3030   81.6100   30.2700 O.2    50  ALA50      -0.2867
     42  CB        55.5210   81.4930   31.1250 C.3    50  ALA50       0.0290
     43  N         50.7770   79.1040   30.8530 N.3    59  ARG59      -0.1231
     44  CA        50.9600   78.2630   32.0110 C.3    59  ARG59       0.1694
     45  C         51.0360   79.1220   33.2600 C.2    59  ARG59       0.2592
     46  O         51.7210   80.1340   33.2700 O.2    59  ARG59      -0.2718
     47  CB        52.2260   77.4340   31.8430 C.3    59  ARG59       0.0321
     48  CG        51.9770   76.1200   31.1250 C.3    59  ARG59       0.0489
     49  CD        52.5040   76.0420   29.7020 C.3    59  ARG59       0.2205
     50  NE        53.3490   74.8580   29.5780 N.pl3  59  ARG59      -0.0865
     51  CZ        53.6260   74.2330   28.4410 C.cat  59  ARG59       0.5346
     52  NH1       53.1150   74.6720   27.2980 N.pl3  59  ARG59       0.1354
     53  NH2       54.4400   73.1790   28.4460 N.pl3  59  ARG59       0.1354
     54  N         50.3280   78.7220   34.3100 N.am   60  TYR60      -0.1976
     55  CA        50.2990   79.4780   35.5570 C.3    60  TYR60       0.1639
     56  C         50.7710   78.6420   36.7300 C.2    60  TYR60       0.2290
     57  O         50.9470   77.4340   36.6020 O.2    60  TYR60      -0.2864
     58  CB        48.8760   79.9540   35.8340 C.3    60  TYR60       0.0560
     59  CG        48.2590   80.7570   34.7110 C.ar   60  TYR60      -0.0198
     60  CD1       48.1020   80.2060   33.4450 C.ar   60  TYR60      -0.0009
     61  CD2       47.8340   82.0660   34.9140 C.ar   60  TYR60      -0.0009
     62  CE1       47.5390   80.9350   32.4030 C.ar   60  TYR60       0.0417
     63  CE2       47.2700   82.8080   33.8770 C.ar   60  TYR60       0.0417
     64  CZ        47.1280   82.2340   32.6190 C.ar   60  TYR60       0.1957
     65  OH        46.6210   82.9610   31.5660 O.3    60  TYR60      -0.2866
     66  N         62.3680   83.8920   26.8290 N.3    99  GLY99      -0.1210
     67  CA        63.0420   82.6160   26.9700 C.3    99  GLY99       0.1956
     68  C         62.6370   81.6760   25.8540 C.2    99  GLY99       0.2612
     69  O         61.5030   81.7300   25.3810 O.2    99  GLY99      -0.2717
     70  N         63.5600   80.8240   25.4210 N.am  100  ARG100     -0.1965
     71  CA        63.2620   79.8800   24.3550 C.3   100  ARG100      0.1729
     72  C         63.0600   78.4740   24.9250 C.2   100  ARG100      0.2617
     73  O         62.1590   77.7490   24.5070 O.2   100  ARG100     -0.2715
     74  CB        64.3940   79.8860   23.3060 C.3   100  ARG100      0.0348
     75  CG        64.1790   78.9260   22.1280 C.3   100  ARG100      0.0492
     76  CD        65.2230   79.1380   21.0560 C.3   100  ARG100      0.2205
     77  NE        66.5810   78.9400   21.5310 N.pl3 100  ARG100     -0.0865
     78  CZ        67.2140   77.8150   21.6070 C.cat 100  ARG100      0.5346
     79  NH1       66.6280   76.6260   21.3210 N.pl3 100  ARG100      0.1354
     80  NH2       68.4320   77.7300   22.0540 N.pl3 100  ARG100      0.1354
     81  N         63.8840   78.1000   25.8950 N.am  101  SER101     -0.1936
     82  CA        63.7960   76.7790   26.5020 C.3   101  SER101      0.2055
     83  C         64.2950   76.8690   27.9220 C.2   101  SER101      0.2642
     84  O         64.8410   77.8950   28.3180 O.2   101  SER101     -0.2714
     85  CB        64.6790   75.7900   25.7470 C.3   101  SER101      0.2130
     86  OG        66.0500   76.0400   26.0070 O.3   101  SER101     -0.2179
     87  N         64.1190   75.7950   28.6850 N.am  102  LEU102     -0.1977
     88  CA        64.5840   75.7670   30.0640 C.3   102  LEU102      0.1596
     89  C         66.0990   75.8190   30.0690 C.2   102  LEU102      0.2287
     90  O         66.7110   76.0930   31.0960 O.2   102  LEU102     -0.2864
     91  CB        64.1140   74.5020   30.7800 C.3   102  LEU102      0.0297
     92  CG        62.6300   74.4250   31.1300 C.3   102  LEU102      0.0022
     93  CD1       62.3260   73.0880   31.7800 C.3   102  LEU102      0.0001
     94  CD2       62.2700   75.5570   32.0690 C.3   102  LEU102      0.0001
     95  N         67.0380   80.8550   28.8910 N.3   105  THR105     -0.1218
     96  CA        65.9290   81.7070   29.2760 C.3   105  THR105      0.1862
     97  C         66.2870   82.7990   30.2780 C.2   105  THR105      0.2287
     98  O         67.2630   82.6940   31.0240 O.2   105  THR105     -0.2866
     99  CB        64.7760   80.8710   29.8480 C.3   105  THR105      0.1770
    100  OG1       63.6970   81.7350   30.2070 O.3   105  THR105     -0.2211
    101  CG2       65.2270   80.1140   31.0760 C.3   105  THR105      0.0375
@<TRIPOS>BOND
     1    76    77    1
     2    76    75    1
     3    79    78    1
     4    77    78    2
     5    78    80    1
     6    75    74    1
     7    74    71    1
     8    71    72    1
     9    71    70    1
    10    73    72    2
    11     1     2    1
    12    72    81   am
    13    69    68    2
    14    70    68   am
    15    85    86    1
    16    85    82    1
    17     2     3    1
    18     2     5    1
    19    68    67    1
    20    81    82    1
    21     9     7   ar
    22     9    10   ar
    23     7     6   ar
    24     4     3    2
    25    82    83    1
    26    10    12   ar
    27    10     8   ar
    28     6     5    1
    29     6     8   ar
    30    12    14   ar
    31    66    67    1
    32     8    11   ar
    33    52    51    1
    34    14    13   ar
    35    11    13   ar
    36    83    84    2
    37    83    87   am
    38    51    53    1
    39    51    50    2
    40    87    88    1
    41    95    96    1
    42    96    99    1
    43    96    97    1
    44    50    49    1
    45    49    48    1
    46    23    21   am
    47    99   100    1
    48    99   101    1
    49    40    41    2
    50    40    39    1
    51    88    89    1
    52    88    91    1
    53    89    90    2
    54    97    98    2
    55    15    16    1
    56    91    92    1
    57    43    44    1
    58    21    20    1
    59    21    22    2
    60    48    47    1
    61    42    39    1
    62    92    93    1
    63    92    94    1
    64    39    38    1
    65    20    19    1
    66    65    64    1
    67    16    19    1
    68    16    17    1
    69    47    44    1
    70    44    45    1
    71    18    17    2
    72    62    64   ar
    73    62    60   ar
    74    64    63   ar
    75    45    46    2
    76    45    54   am
    77    60    59   ar
    78    63    61   ar
    79    37    35   ar
    80    37    36   ar
    81    35    33   ar
    82    54    55    1
    83    59    61   ar
    84    59    58    1
    85    36    34   ar
    86    33    32   ar
    87    33    31   ar
    88    55    58    1
    89    55    56    1
    90    32    30   ar
    91    34    31   ar
    92    31    29   ar
    93    57    56    2
    94    30    29   ar
    95    29    28    1
    96    28    25    1
    97    26    25    1
    98    26    27    2
    99    25    24    1
