@<TRIPOS>MOLECULE
tmp/1jniA01.pdb
 150 147 0 0 0
SMALL
GASTEIGER

@<TRIPOS>ATOM
      1  N          8.6960   31.0590   -0.5650 N.3     4  PRO4       -0.2102
      2  CA         9.5240   32.2770   -0.5500 C.3     4  PRO4        0.1504
      3  C         11.0050   31.9500   -0.7240 C.2     4  PRO4        0.2576
      4  O         11.5230   30.9820   -0.1860 O.2     4  PRO4       -0.2718
      5  CB         9.2240   32.9530    0.7970 C.3     4  PRO4        0.0282
      6  CG         8.5710   31.8810    1.5900 C.3     4  PRO4        0.0208
      7  CD         7.8490   30.9740    0.6240 C.3     4  PRO4        0.0893
      8  N         11.6630   32.8530   -1.4560 N.am    5  MET5       -0.1966
      9  CA        13.1210   32.7430   -1.5960 C.3     5  MET5        0.1736
     10  C         13.7960   33.0630   -0.2730 C.2     5  MET5        0.2616
     11  O         13.2960   33.7760    0.5940 O.2     5  MET5       -0.2715
     12  CB        13.6440   33.6660   -2.7000 C.3     5  MET5        0.0427
     13  CG        13.1830   33.1650   -4.0740 C.3     5  MET5        0.0599
     14  SD        13.9930   34.0010   -5.4500 S.3     5  MET5       -0.1393
     15  CE        13.0920   35.5350   -5.3890 C.3     5  MET5        0.0692
     16  N         14.9910   32.5260   -0.1000 N.am    6  VAL6       -0.1964
     17  CA        15.8030   32.8090    1.0960 C.3     6  VAL6        0.1712
     18  C         16.5950   34.1060    0.8930 C.2     6  VAL6        0.2458
     19  O         17.3750   34.1570   -0.0800 O.2     6  VAL6       -0.2730
     20  CB        16.7720   31.6700    1.3910 C.3     6  VAL6        0.0289
     21  CG1       17.4670   31.8410    2.7550 C.3     6  VAL6        0.0023
     22  CG2       16.0770   30.3000    1.2870 C.3     6  VAL6        0.0023
     23  N         16.3520   35.1600    1.6870 N.am    7  PRO7       -0.2716
     24  CA        16.9840   36.4470    1.4180 C.3     7  PRO7        0.1536
     25  C         18.3770   36.5500    1.9970 C.2     7  PRO7        0.2598
     26  O         18.9280   37.6420    2.1280 O.2     7  PRO7       -0.2715
     27  CB        16.0870   37.4290    2.1660 C.3     7  PRO7        0.0310
     28  CG        15.6300   36.6360    3.3700 C.3     7  PRO7        0.0237
     29  CD        15.3950   35.2300    2.8400 C.3     7  PRO7        0.0939
     30  N         18.9750   35.4370    2.3170 N.am    8  HIS8       -0.1974
     31  CA        20.3120   35.4300    2.8760 C.3     8  HIS8        0.1656
     32  C         21.0730   34.2420    2.3100 C.2     8  HIS8        0.2291
     33  O         20.4630   33.4210    1.6470 O.2     8  HIS8       -0.2864
     34  CB        20.2590   35.3810    4.4120 C.3     8  HIS8        0.0771
     35  CG        19.5690   34.1710    4.9960 C.ar    8  HIS8        0.0820
     36  ND1       20.0680   32.8860    5.0230 N.ar    8  HIS8       -0.2267
     37  CD2       18.3800   34.0780    5.6350 C.ar    8  HIS8        0.1154
     38  CE1       19.2080   32.0620    5.6450 C.ar    8  HIS8        0.1986
     39  NE2       18.1650   32.7700    6.0120 N.ar    8  HIS8       -0.2212
     40  N         22.9360   30.5800    2.0780 N.3    10  VAL10      -0.1245
     41  CA        22.7020   29.2700    2.6800 C.3    10  VAL10       0.1561
     42  C         23.9670   28.4000    2.6740 C.2    10  VAL10       0.2260
     43  O         23.9560   27.2090    3.0820 O.2    10  VAL10      -0.2867
     44  CB        21.5070   28.5350    2.0210 C.3    10  VAL10       0.0252
     45  CG1       20.2690   29.3560    2.2670 C.3    10  VAL10       0.0019
     46  CG2       21.6780   28.2150    0.5510 C.3    10  VAL10       0.0019
     47  N         25.0800   26.2170    5.9380 N.3    13  TYR13      -0.1241
     48  CA        24.1270   25.4450    6.7070 C.3    13  TYR13       0.1605
     49  C         23.8000   24.0670    6.1100 C.2    13  TYR13       0.2264
     50  O         23.2230   23.8970    5.0460 O.2    13  TYR13      -0.2867
     51  CB        22.8460   26.2800    6.8120 C.3    13  TYR13       0.0534
     52  CG        23.0050   27.6730    7.3620 C.ar   13  TYR13      -0.0201
     53  CD1       22.4760   28.8190    6.7860 C.ar   13  TYR13      -0.0009
     54  CD2       23.7530   27.8580    8.5370 C.ar   13  TYR13      -0.0009
     55  CE1       22.6410   30.0990    7.3070 C.ar   13  TYR13       0.0417
     56  CE2       23.9250   29.1000    9.0750 C.ar   13  TYR13       0.0417
     57  CZ        23.3810   30.2290    8.4800 C.ar   13  TYR13       0.1957
     58  OH        23.5930   31.4660    9.0700 O.3    13  TYR13      -0.2866
     59  N         22.0670   20.3370    5.9930 N.3    15  VAL15      -0.1245
     60  CA        20.8360   19.6040    6.2580 C.3    15  VAL15       0.1561
     61  C         20.9150   18.1180    5.8200 C.2    15  VAL15       0.2260
     62  O         20.7960   17.8000    4.6130 O.2    15  VAL15      -0.2867
     63  CB        19.6400   20.2550    5.5480 C.3    15  VAL15       0.0252
     64  CG1       18.3240   19.6200    6.0000 C.3    15  VAL15       0.0019
     65  CG2       19.6060   21.7690    5.8240 C.3    15  VAL15       0.0019
     66  N         20.7200   22.7690   10.2740 N.3    21  GLN21      -0.1231
     67  CA        21.1930   24.0330   10.8300 C.3    21  GLN21       0.1698
     68  C         20.2290   25.1730   10.5220 C.2    21  GLN21       0.2592
     69  O         20.2110   26.1860   11.2460 O.2    21  GLN21      -0.2718
     70  CB        22.6250   24.2900   10.3720 C.3    21  GLN21       0.0381
     71  CG        23.6620   23.3180   10.9390 C.3    21  GLN21       0.0905
     72  CD        25.0490   23.7710   10.5400 C.2    21  GLN21       0.2608
     73  OE1       25.4450   23.8570    9.3870 O.2    21  GLN21      -0.2717
     74  NE2       25.8580   24.1360   11.5320 N.am   21  GLN21      -0.0878
     75  N         19.3220   25.0310    9.5610 N.am   22  CYS22      -0.1970
     76  CA        18.2910   26.0290    9.3570 C.3    22  CYS22       0.1712
     77  C         17.3950   26.2260   10.6130 C.2    22  CYS22       0.2296
     78  O         16.9480   27.3380   10.9170 O.2    22  CYS22      -0.2864
     79  CB        17.3990   25.6730    8.1830 C.3    22  CYS22       0.0983
     80  SG        18.2370   25.2160    6.6500 S.3    22  CYS22      -0.0798
     81  N         18.2480   26.1510   13.6290 N.3    24  ASN24      -0.1225
     82  CA        18.8760   26.8840   14.7330 C.3    24  ASN24       0.1785
     83  C         18.2640   28.2710   14.8580 C.2    24  ASN24       0.2597
     84  O         18.3790   28.8890   15.9270 O.2    24  ASN24      -0.2718
     85  CB        20.3800   27.0900   14.5390 C.3    24  ASN24       0.1169
     86  CG        21.2760   25.9070   14.5030 C.2    24  ASN24       0.2627
     87  OD1       20.8740   24.8020   14.8860 O.2    24  ASN24      -0.2716
     88  ND2       22.5010   26.1270   14.0000 N.am   24  ASN24      -0.0877
     89  N         17.6480   28.7780   13.7880 N.am   25  CYS25      -0.1956
     90  CA        16.9790   30.0820   13.7820 C.3    25  CYS25       0.1843
     91  C         15.4710   29.9550   13.5160 C.2    25  CYS25       0.2625
     92  O         14.7360   30.7120   14.1690 O.2    25  CYS25      -0.2714
     93  CB        17.6160   31.0530   12.7740 C.3    25  CYS25       0.0997
     94  SG        19.3700   31.4150   13.1920 S.3    25  CYS25      -0.0797
     95  N         15.0410   29.0780   12.6030 N.am   26  HIS26      -0.1973
     96  CA        13.6570   29.0410   12.1580 C.3    26  HIS26       0.1656
     97  C         12.7960   28.0880   12.9410 C.2    26  HIS26       0.2291
     98  O         11.5950   28.0320   12.6810 O.2    26  HIS26      -0.2864
     99  CB        13.6870   28.7280   10.6760 C.3    26  HIS26       0.0771
    100  CG        14.1020   29.8590    9.7500 C.ar   26  HIS26       0.0820
    101  ND1       13.3180   30.9230    9.3590 N.ar   26  HIS26      -0.2267
    102  CD2       15.2800   30.0050    9.0980 C.ar   26  HIS26       0.1154
    103  CE1       14.0440   31.6880    8.5090 C.ar   26  HIS26       0.1986
    104  NE2       15.2380   31.1610    8.3450 N.ar   26  HIS26      -0.2212
    105  N         16.0760   34.8720   17.2640 N.3    34  SER34      -0.1202
    106  CA        16.9040   35.1140   16.0680 C.3    34  SER34       0.2020
    107  C         16.3140   36.1160   15.1060 C.2    34  SER34       0.2619
    108  O         17.0080   36.5750   14.1980 O.2    34  SER34      -0.2717
    109  CB        17.1280   33.7420   15.3660 C.3    34  SER34       0.2103
    110  OG        15.8820   33.2940   14.8000 O.3    34  SER34      -0.2182
    111  N         15.0410   36.4530   15.2460 N.am   35  GLY35      -0.1942
    112  CA        14.4090   37.2820   14.2160 C.3    35  GLY35       0.2014
    113  C         13.9340   36.5880   12.9840 C.2    35  GLY35       0.2639
    114  O         13.2940   37.1190   12.0820 O.2    35  GLY35      -0.2714
    115  N         14.1660   35.2810   12.8710 N.am   36  ALA36      -0.1963
    116  CA        13.8050   34.4880   11.7100 C.3    36  ALA36       0.1728
    117  C         12.3700   34.0390   11.8080 C.2    36  ALA36       0.2616
    118  O         11.9520   33.5570   12.8450 O.2    36  ALA36      -0.2715
    119  CB        14.7050   33.2490   11.6380 C.3    36  ALA36       0.0334
    120  N         11.6210   34.1210   10.7200 N.am   37  THR37      -0.1951
    121  CA        10.2200   33.6880   10.7090 C.3    37  THR37       0.1897
    122  C         10.1290   32.2150   11.0260 C.2    37  THR37       0.2313
    123  O         10.8820   31.4080   10.4430 O.2    37  THR37      -0.2863
    124  CB         9.5830   33.9800    9.3430 C.3    37  THR37       0.1794
    125  OG1        9.5690   35.4090    9.2030 O.3    37  THR37      -0.2208
    126  CG2        8.1670   33.4920    9.2130 C.3    37  THR37       0.0378
    127  N         14.9270   21.4730    3.5780 N.3    58  CYS58      -0.1221
    128  CA        14.5900   22.8490    3.2360 C.3    58  CYS58       0.1808
    129  C         14.9740   23.2800    1.8180 C.2    58  CYS58       0.2601
    130  O         14.1940   23.9380    1.1140 O.2    58  CYS58      -0.2717
    131  CB        15.1970   23.8840    4.2130 C.3    58  CYS58       0.0970
    132  SG        15.1740   23.3740    5.9700 S.3    58  CYS58      -0.0800
    133  N         16.1870   22.9520    1.3770 N.am   59  LEU59      -0.1979
    134  CA        16.6980   23.4110    0.0640 C.3    59  LEU59       0.1596
    135  C         16.2300   22.5750   -1.1020 C.2    59  LEU59       0.2287
    136  O         16.5870   22.8170   -2.2850 O.2    59  LEU59      -0.2864
    137  CB        18.2320   23.5550    0.1420 C.3    59  LEU59       0.0297
    138  CG        18.7930   24.6000    1.1150 C.3    59  LEU59       0.0022
    139  CD1       20.3030   24.7270    1.0440 C.3    59  LEU59       0.0001
    140  CD2       18.2050   26.0020    0.8960 C.3    59  LEU59       0.0001
    141  N         13.2230   25.6200   -1.2430 N.3    62  HIS62      -0.1241
    142  CA        13.5530   27.0480   -1.1450 C.3    62  HIS62       0.1621
    143  C         14.8520   27.3540   -1.8980 C.2    62  HIS62       0.2264
    144  O         15.8330   26.6270   -1.7480 O.2    62  HIS62      -0.2867
    145  CB        13.6720   27.4190    0.3130 C.3    62  HIS62       0.0745
    146  CG        12.3720   27.4370    1.0820 C.ar   62  HIS62       0.0817
    147  ND1       11.5130   28.5090    1.1020 N.ar   62  HIS62      -0.2268
    148  CD2       11.7720   26.5210    1.8950 C.ar   62  HIS62       0.1154
    149  CE1       10.4440   28.2440    1.8810 C.ar   62  HIS62       0.1986
    150  NE2       10.5960   27.0240    2.3800 N.ar   62  HIS62      -0.2212
@<TRIPOS>BOND
     1    14    15    1
     2    14    13    1
     3    13    12    1
     4    12     9    1
     5   136   135    2
     6   143   144    2
     7   143   142    1
     8     9     8    1
     9     9    10    1
    10     8     3   am
    11   141   142    1
    12   142   145    1
    13   135   134    1
    14     3     2    1
    15     3     4    2
    16     1     2    1
    17     1     7    1
    18     2     5    1
    19    10    16   am
    20    10    11    2
    21    16    17    1
    22    19    18    2
    23   134   137    1
    24   134   133    1
    25   137   138    1
    26   145   146    1
    27    46    44    1
    28     7     6    1
    29     5     6    1
    30    18    17    1
    31    18    23   am
    32   140   138    1
    33   139   138    1
    34   146   147   ar
    35   146   148   ar
    36    17    20    1
    37   147   149   ar
    38   130   129    2
    39    22    20    1
    40   133   129   am
    41    20    21    1
    42    24    23    1
    43    24    25    1
    44    24    27    1
    45    33    32    2
    46    23    29    1
    47   129   128    1
    48   149   150   ar
    49   148   150   ar
    50    25    26    2
    51    25    30   am
    52    44    45    1
    53    44    41    1
    54    40    41    1
    55    27    28    1
    56    32    31    1
    57    30    31    1
    58    42    41    1
    59    42    43    2
    60    29    28    1
    61    31    34    1
    62   128   127    1
    63   128   131    1
    64   131   132    1
    65    34    35    1
    66    62    61    2
    67    35    36   ar
    68    35    37   ar
    69    36    38   ar
    70    50    49    2
    71    63    65    1
    72    63    64    1
    73    63    60    1
    74    37    39   ar
    75    38    39   ar
    76    61    60    1
    77    47    48    1
    78    59    60    1
    79    49    48    1
    80    80    79    1
    81    48    51    1
    82    53    55   ar
    83    53    52   ar
    84    51    52    1
    85    55    57   ar
    86    52    54   ar
    87    79    76    1
    88   104   103   ar
    89   104   102   ar
    90    57    58    1
    91    57    56   ar
    92   103   101   ar
    93    54    56   ar
    94   102   100   ar
    95   125   124    1
    96   126   124    1
    97   124   121    1
    98    76    75    1
    99    76    77    1
   100   101   100   ar
   101    73    72    2
   102    75    68   am
   103   100    99    1
   104    66    67    1
   105    70    67    1
   106    70    71    1
   107   123   122    2
   108    68    67    1
   109    68    69    2
   110    72    71    1
   111    72    74   am
   112    77    78    2
   113    99    96    1
   114   121   120    1
   115   121   122    1
   116   120   117   am
   117   119   116    1
   118   116   117    1
   119   116   115    1
   120   117   118    2
   121   114   113    2
   122    96    95    1
   123    96    97    1
   124    95    91   am
   125    98    97    2
   126    93    94    1
   127    93    90    1
   128   115   113   am
   129   113   112    1
   130    91    90    1
   131    91    92    2
   132    81    82    1
   133    90    89    1
   134    89    83   am
   135    88    86   am
   136   108   107    2
   137   112   111    1
   138    86    85    1
   139    86    87    2
   140    85    82    1
   141    82    83    1
   142   110   109    1
   143    83    84    2
   144   107   111   am
   145   107   106    1
   146   109   106    1
   147   106   105    1
