@<TRIPOS>MOLECULE
tmp/1jniA00.pdb
 184 183 0 0 0
SMALL
GASTEIGER

@<TRIPOS>ATOM
      1  N          2.5340   30.3910   -5.9440 N.3     1  ASN1       -0.1225
      2  CA         2.7570   29.0120   -5.4990 C.3     1  ASN1        0.1785
      3  C          4.1870   28.5910   -5.0490 C.2     1  ASN1        0.2597
      4  O          4.4490   27.7920   -4.1460 O.2     1  ASN1       -0.2718
      5  CB         2.2150   28.0650   -6.5620 C.3     1  ASN1        0.1169
      6  CG         2.8940   28.1670   -7.8930 C.2     1  ASN1        0.2627
      7  OD1        3.9580   28.7670   -8.0030 O.2     1  ASN1       -0.2716
      8  ND2        2.3100   27.5130   -8.8910 N.am    1  ASN1       -0.0877
      9  N          5.2530   29.1160   -5.6940 N.am    2  GLN2       -0.1966
     10  CA         6.6320   28.9920   -5.2190 C.3     2  GLN2        0.1718
     11  C          6.7710   29.3830   -3.7540 C.2     2  GLN2        0.2458
     12  O          6.2120   30.3800   -3.2780 O.2     2  GLN2       -0.2730
     13  CB         7.4970   29.9130   -6.0740 C.3     2  GLN2        0.0407
     14  CG         7.7530   29.3960   -7.4740 C.3     2  GLN2        0.0908
     15  CD         8.5800   28.1180   -7.5280 C.2     2  GLN2        0.2608
     16  OE1        8.1930   27.1520   -8.2290 O.2     2  GLN2       -0.2717
     17  NE2        9.7170   28.1010   -6.8380 N.am    2  GLN2       -0.0878
     18  N          7.5510   28.6100   -2.9920 N.am    3  PRO3       -0.2716
     19  CA         7.9390   28.9700   -1.6230 C.3     3  PRO3        0.1521
     20  C          8.7620   30.2510   -1.6290 C.2     3  PRO3        0.2440
     21  O          9.4030   30.5210   -2.6360 O.2     3  PRO3       -0.2731
     22  CB         8.7960   27.8090   -1.1160 C.3     3  PRO3        0.0310
     23  CG         8.6880   26.7460   -2.1230 C.3     3  PRO3        0.0237
     24  CD         8.1600   27.3390   -3.4100 C.3     3  PRO3        0.0939
     25  N          8.6960   31.0590   -0.5650 N.am    4  PRO4       -0.2727
     26  CA         9.5240   32.2770   -0.5500 C.3     4  PRO4        0.1402
     27  C         11.0050   31.9500   -0.7240 C.2     4  PRO4        0.2269
     28  O         11.5230   30.9820   -0.1860 O.2     4  PRO4       -0.2865
     29  CB         9.2240   32.9530    0.7970 C.3     4  PRO4        0.0296
     30  CG         8.5710   31.8810    1.5900 C.3     4  PRO4        0.0237
     31  CD         7.8490   30.9740    0.6240 C.3     4  PRO4        0.0939
     32  N         20.1780   19.7120   11.1590 N.3    20  ASN20      -0.1240
     33  CA        19.4300   20.7090   10.3220 C.3    20  ASN20       0.1653
     34  C         19.7430   22.1110   10.8650 C.2    20  ASN20       0.2266
     35  O         19.1350   22.5810   11.7930 O.2    20  ASN20      -0.2867
     36  CB        17.9390   20.4710   10.2890 C.3    20  ASN20       0.1155
     37  CG        17.2380   21.3140    9.2490 C.2    20  ASN20       0.2627
     38  OD1       17.5810   22.5010    9.1140 O.2    20  ASN20      -0.2716
     39  ND2       16.2900   20.7340    8.5110 N.am   20  ASN20      -0.0877
     40  N         19.3220   25.0310    9.5610 N.3    22  CYS22      -0.1221
     41  CA        18.2910   26.0290    9.3570 C.3    22  CYS22       0.1808
     42  C         17.3950   26.2260   10.6130 C.2    22  CYS22       0.2601
     43  O         16.9480   27.3380   10.9170 O.2    22  CYS22      -0.2717
     44  CB        17.3990   25.6730    8.1830 C.3    22  CYS22       0.0970
     45  SG        18.2370   25.2160    6.6500 S.3    22  CYS22      -0.0800
     46  N         17.1760   25.1200   11.3470 N.am   23  LEU23      -0.1979
     47  CA        16.3030   25.1770   12.4930 C.3    23  LEU23       0.1596
     48  C         16.9560   25.8510   13.6950 C.2    23  LEU23       0.2287
     49  O         16.2770   26.1190   14.6820 O.2    23  LEU23      -0.2864
     50  CB        15.8360   23.7400   12.7960 C.3    23  LEU23       0.0297
     51  CG        14.8570   23.1620   11.7220 C.3    23  LEU23       0.0022
     52  CD1       14.5700   21.7050   12.0610 C.3    23  LEU23       0.0001
     53  CD2       13.5650   23.9320   11.6230 C.3    23  LEU23       0.0001
     54  N         15.0410   29.0780   12.6030 N.3    26  HIS26      -0.1241
     55  CA        13.6570   29.0410   12.1580 C.3    26  HIS26       0.1621
     56  C         12.7960   28.0880   12.9410 C.2    26  HIS26       0.2264
     57  O         11.5950   28.0320   12.6810 O.2    26  HIS26      -0.2867
     58  CB        13.6870   28.7280   10.6760 C.3    26  HIS26       0.0745
     59  CG        14.1020   29.8590    9.7500 C.ar   26  HIS26       0.0817
     60  ND1       13.3180   30.9230    9.3590 N.ar   26  HIS26      -0.2268
     61  CD2       15.2800   30.0050    9.0980 C.ar   26  HIS26       0.1154
     62  CE1       14.0440   31.6880    8.5090 C.ar   26  HIS26       0.1986
     63  NE2       15.2380   31.1610    8.3450 N.ar   26  HIS26      -0.2212
     64  N         11.6210   34.1210   10.7200 N.3    37  THR37      -0.1203
     65  CA        10.2200   33.6880   10.7090 C.3    37  THR37       0.1994
     66  C         10.1290   32.2150   11.0260 C.2    37  THR37       0.2618
     67  O         10.8820   31.4080   10.4430 O.2    37  THR37      -0.2717
     68  CB         9.5830   33.9800    9.3430 C.3    37  THR37       0.1784
     69  OG1        9.5690   35.4090    9.2030 O.3    37  THR37      -0.2211
     70  CG2        8.1670   33.4920    9.2130 C.3    37  THR37       0.0376
     71  N          9.2190   31.8940   11.9360 N.am   38  ARG38      -0.1965
     72  CA         9.0610   30.5110   12.3080 C.3    38  ARG38       0.1729
     73  C          8.5260   29.6530   11.1710 C.2    38  ARG38       0.2616
     74  O          7.6250   30.1410   10.4590 O.2    38  ARG38      -0.2715
     75  CB         8.0730   30.5080   13.4860 C.3    38  ARG38       0.0348
     76  CG         7.7560   29.2540   14.1770 C.3    38  ARG38       0.0492
     77  CD         6.8150   29.5110   15.3420 C.3    38  ARG38       0.2205
     78  NE         7.4250   30.3210   16.3930 N.pl3  38  ARG38      -0.0865
     79  CZ         6.9180   30.5510   17.5970 C.cat  38  ARG38       0.5346
     80  NH1        5.7570   29.9930   17.9020 N.pl3  38  ARG38       0.1354
     81  NH2        7.5540   31.3120   18.4730 N.pl3  38  ARG38       0.1354
     82  N          9.0030   28.4140   11.0340 N.am   39  ILE39      -0.1963
     83  CA         8.3180   27.5170   10.1010 C.3    39  ILE39       0.1727
     84  C          6.9040   27.2810   10.6350 C.2    39  ILE39       0.2616
     85  O          6.6840   26.9990   11.8040 O.2    39  ILE39      -0.2715
     86  CB         9.0730   26.1940    9.8300 C.3    39  ILE39       0.0290
     87  CG1        9.4980   25.4730   11.1050 C.3    39  ILE39       0.0022
     88  CG2       10.2670   26.4060    8.8730 C.3    39  ILE39       0.0023
     89  CD1        9.8130   23.9890   10.8910 C.3    39  ILE39       0.0001
     90  N          5.9270   27.4260    9.7550 N.am   40  SER40      -0.1950
     91  CA         4.5080   27.3000   10.0740 C.3    40  SER40       0.1924
     92  C          4.0320   25.8640   10.2490 C.2    40  SER40       0.2314
     93  O          4.7610   24.9440    9.8310 O.2    40  SER40      -0.2863
     94  CB         3.6880   27.9130    8.9260 C.3    40  SER40       0.2116
     95  OG         3.8630   27.2060    7.7050 O.3    40  SER40      -0.2180
     96  N          2.2110   24.1640    8.4450 N.3    42  THR42      -0.1203
     97  CA         2.2580   23.4480    7.1790 C.3    42  THR42       0.1994
     98  C          3.5360   22.5820    7.0460 C.2    42  THR42       0.2617
     99  O          3.4620   21.5880    6.3180 O.2    42  THR42      -0.2717
    100  CB         2.2300   24.3610    5.9530 C.3    42  THR42       0.1784
    101  OG1        3.2190   25.3510    6.1910 O.3    42  THR42      -0.2211
    102  CG2        0.9450   25.1700    5.7850 C.3    42  THR42       0.0376
    103  N          4.6260   22.9240    7.7060 N.am   43  HIS43      -0.1975
    104  CA         5.8980   22.2020    7.7020 C.3    43  HIS43       0.1656
    105  C          5.9340   21.0020    8.6830 C.2    43  HIS43       0.2291
    106  O          6.8200   20.1710    8.6060 O.2    43  HIS43      -0.2864
    107  CB         7.0070   23.2070    7.9870 C.3    43  HIS43       0.0771
    108  CG         7.3050   24.1750    6.9040 C.ar   43  HIS43       0.0820
    109  ND1        6.5200   25.2230    6.5540 N.ar   43  HIS43      -0.2267
    110  CD2        8.3420   24.3100    6.0340 C.ar   43  HIS43       0.1154
    111  CE1        7.0180   25.9430    5.5190 C.ar   43  HIS43       0.1986
    112  NE2        8.1760   25.3920    5.1960 N.ar   43  HIS43      -0.2212
    113  N          9.5670   18.2870   11.9940 N.3    53  PRO53      -0.2116
    114  CA         9.0170   18.8300   10.7480 C.3    53  PRO53       0.1372
    115  C          8.9540   17.7860    9.6330 C.2    53  PRO53       0.2244
    116  O          9.9820   17.1320    9.4340 O.2    53  PRO53      -0.2868
    117  CB        10.0140   19.9210   10.3510 C.3    53  PRO53       0.0268
    118  CG        11.1970   19.7700   11.2270 C.3    53  PRO53       0.0207
    119  CD        10.7970   18.9480   12.4190 C.3    53  PRO53       0.0892
    120  N          8.3330   18.6950    6.4450 N.3    55  ARG55      -0.1231
    121  CA         9.0570   19.4670    5.4050 C.3    55  ARG55       0.1694
    122  C         10.4480   19.7630    6.0030 C.2    55  ARG55       0.2592
    123  O         10.5520   20.7950    6.6680 O.2    55  ARG55      -0.2718
    124  CB         8.3400   20.7410    5.0240 C.3    55  ARG55       0.0321
    125  CG         7.0450   20.6080    4.2520 C.3    55  ARG55       0.0489
    126  CD         6.4790   21.9340    3.7890 C.3    55  ARG55       0.2205
    127  NE         5.1320   21.8260    3.2060 N.pl3  55  ARG55      -0.0865
    128  CZ         4.3550   22.8920    2.9520 C.cat  55  ARG55       0.5346
    129  NH1        4.7820   24.1350    3.2150 N.pl3  55  ARG55       0.1354
    130  NH2        3.1590   22.7130    2.4480 N.pl3  55  ARG55       0.1354
    131  N         11.4010   18.8600    5.8260 N.am   56  TYR56      -0.1962
    132  CA        12.6680   18.8280    6.5410 C.3    56  TYR56       0.1771
    133  C         13.8560   19.2530    5.6930 C.2    56  TYR56       0.2620
    134  O         14.6790   20.0320    6.1380 O.2    56  TYR56      -0.2715
    135  CB        12.9260   17.4220    7.1150 C.3    56  TYR56       0.0574
    136  CG        14.1990   17.2740    7.8960 C.ar   56  TYR56      -0.0198
    137  CD1       14.2610   17.5590    9.2440 C.ar   56  TYR56      -0.0009
    138  CD2       15.3770   16.8370    7.2990 C.ar   56  TYR56      -0.0009
    139  CE1       15.4620   17.4080    9.9250 C.ar   56  TYR56       0.0417
    140  CE2       16.5740   16.6790    7.9610 C.ar   56  TYR56       0.0417
    141  CZ        16.6020   16.9650    9.3090 C.ar   56  TYR56       0.1957
    142  OH        17.7910   16.8310   10.0190 O.3    56  TYR56      -0.2866
    143  N         13.9240   18.7050    4.4750 N.am   57  PHE57      -0.1960
    144  CA        15.0430   19.0390    3.6030 C.3    57  PHE57       0.1771
    145  C         14.7260   20.3540    2.9050 C.2    57  PHE57       0.2619
    146  O         14.2990   20.3380    1.7430 O.2    57  PHE57      -0.2715
    147  CB        15.3750   17.9010    2.6370 C.3    57  PHE57       0.0574
    148  CG        15.9330   16.6870    3.3730 C.ar   57  PHE57      -0.0200
    149  CD1       15.1790   15.5510    3.5300 C.ar   57  PHE57      -0.0042
    150  CD2       17.2250   16.7050    3.8820 C.ar   57  PHE57      -0.0042
    151  CE1       15.6610   14.4210    4.1440 C.ar   57  PHE57      -0.0003
    152  CE2       17.7140   15.5720    4.5260 C.ar   57  PHE57      -0.0003
    153  CZ        16.9300   14.4480    4.6660 C.ar   57  PHE57      -0.0000
    154  N         14.9270   21.4730    3.5780 N.am   58  CYS58      -0.1968
    155  CA        14.5900   22.8490    3.2360 C.3    58  CYS58       0.1712
    156  C         14.9740   23.2800    1.8180 C.2    58  CYS58       0.2296
    157  O         14.1940   23.9380    1.1140 O.2    58  CYS58      -0.2864
    158  CB        15.1970   23.8840    4.2130 C.3    58  CYS58       0.0983
    159  SG        15.1740   23.3740    5.9700 S.3    58  CYS58      -0.0798
    160  N         15.3990   21.5630   -0.8810 N.3    60  GLN60      -0.1182
    161  CA        14.7240   20.8700   -1.9860 C.3    60  GLN60       0.1914
    162  C         13.6750   21.8260   -2.5780 C.2    60  GLN60       0.2635
    163  O         13.3110   21.6920   -3.7520 O.2    60  GLN60      -0.2714
    164  CB        13.9980   19.5920   -1.5840 C.2    60  GLN60       0.0065
    165  CG        14.6880   18.3080   -1.1560 C.2    60  GLN60       0.0585
    166  CD        13.7980   17.1260   -0.8290 C.2    60  GLN60       0.2840
    167  OE1       14.2200   16.0580   -0.3190 O.2    60  GLN60      -0.2667
    168  NE2       12.4800   17.1440   -1.0280 N.am   60  GLN60      -0.0837
    169  N         13.1230   22.7470   -1.7900 N.am   61  CYS61      -0.1953
    170  CA        12.0440   23.6590   -2.1730 C.3    61  CYS61       0.1843
    171  C         12.4210   25.1220   -2.2120 C.2    61  CYS61       0.2625
    172  O         11.9440   25.8410   -3.0840 O.2    61  CYS61      -0.2714
    173  CB        10.8980   23.4690   -1.1720 C.3    61  CYS61       0.0997
    174  SG        10.1860   21.8040   -1.1670 S.3    61  CYS61      -0.0797
    175  N         13.2230   25.6200   -1.2430 N.am   62  HIS62      -0.1973
    176  CA        13.5530   27.0480   -1.1450 C.3    62  HIS62       0.1656
    177  C         14.8520   27.3540   -1.8980 C.2    62  HIS62       0.2291
    178  O         15.8330   26.6270   -1.7480 O.2    62  HIS62      -0.2864
    179  CB        13.6720   27.4190    0.3130 C.3    62  HIS62       0.0771
    180  CG        12.3720   27.4370    1.0820 C.ar   62  HIS62       0.0820
    181  ND1       11.5130   28.5090    1.1020 N.ar   62  HIS62      -0.2267
    182  CD2       11.7720   26.5210    1.8950 C.ar   62  HIS62       0.1154
    183  CE1       10.4440   28.2440    1.8810 C.ar   62  HIS62       0.1986
    184  NE2       10.5960   27.0240    2.3800 N.ar   62  HIS62      -0.2212
@<TRIPOS>BOND
     1     8     6   am
     2    16    15    2
     3     7     6    2
     4     6     5    1
     5    15    14    1
     6    15    17   am
     7    14    13    1
     8     5     2    1
     9    13    10    1
    10     1     2    1
    11     9    10    1
    12     9     3   am
    13     2     3    1
    14    10    11    1
    15     3     4    2
    16    11    12    2
    17    11    18   am
    18   163   162    2
    19    24    18    1
    20    24    23    1
    21   172   171    2
    22    18    19    1
    23    21    20    2
    24   162   161    1
    25   162   169   am
    26   171   170    1
    27   171   175   am
    28   170   169    1
    29   170   173    1
    30    23    22    1
    31   161   164    1
    32   161   160    1
    33   177   178    2
    34   177   176    1
    35    20    19    1
    36    20    25   am
    37    19    22    1
    38   164   165    2
    39   175   176    1
    40   173   174    1
    41   165   166    1
    42   176   179    1
    43   168   166   am
    44   166   167    2
    45    27    26    1
    46    27    28    2
    47    25    26    1
    48    25    31    1
    49    26    29    1
    50   179   180    1
    51    31    30    1
    52    29    30    1
    53   180   181   ar
    54   180   182   ar
    55   181   183   ar
    56   157   156    2
    57   146   145    2
    58   156   155    1
    59   183   184   ar
    60   182   184   ar
    61   130   128    1
    62   147   148    1
    63   147   144    1
    64   145   154   am
    65   145   144    1
    66   128   127    2
    67   128   129    1
    68   127   126    1
    69   155   154    1
    70   155   158    1
    71   148   149   ar
    72   148   150   ar
    73   149   151   ar
    74   144   143    1
    75   126   125    1
    76   150   152   ar
    77   151   153   ar
    78   158   159    1
    79   125   124    1
    80   143   133   am
    81   152   153   ar
    82   124   121    1
    83   112   111   ar
    84   112   110   ar
    85   121   122    1
    86   121   120    1
    87   111   109   ar
    88   133   134    2
    89   133   132    1
    90   102   100    1
    91   131   122   am
    92   131   132    1
    93   100   101    1
    94   100    97    1
    95   122   123    2
    96   110   108   ar
    97    99    98    2
    98   132   135    1
    99   109   108   ar
   100    45    44    1
   101   108   107    1
   102    98    97    1
   103    98   103   am
   104   135   136    1
   105    97    96    1
   106   138   136   ar
   107   138   140   ar
   108   104   103    1
   109   104   107    1
   110   104   105    1
   111    95    94    1
   112   136   137   ar
   113   140   141   ar
   114    44    41    1
   115    63    62   ar
   116    63    61   ar
   117    62    60   ar
   118    39    37   am
   119   106   105    2
   120    88    86    1
   121    94    91    1
   122    61    59   ar
   123    38    37    2
   124    69    68    1
   125    70    68    1
   126   137   139   ar
   127    37    36    1
   128   141   139   ar
   129   141   142    1
   130    68    65    1
   131    41    40    1
   132    41    42    1
   133    60    59   ar
   134   116   115    2
   135   115   114    1
   136    59    58    1
   137    90    91    1
   138    90    84   am
   139    86    83    1
   140    86    87    1
   141    93    92    2
   142    91    92    1
   143    83    84    1
   144    83    82    1
   145    36    33    1
   146    33    34    1
   147    33    32    1
   148   117   114    1
   149   117   118    1
   150    67    66    2
   151    74    73    2
   152    42    43    2
   153    42    46   am
   154    84    85    2
   155    58    55    1
   156    65    64    1
   157    65    66    1
   158   114   113    1
   159    34    35    2
   160    89    87    1
   161    66    71   am
   162    82    73   am
   163    73    72    1
   164   118   119    1
   165    46    47    1
   166    53    51    1
   167    51    52    1
   168    51    50    1
   169    71    72    1
   170   113   119    1
   171    55    54    1
   172    55    56    1
   173    72    75    1
   174    47    50    1
   175    47    48    1
   176    57    56    2
   177    75    76    1
   178    48    49    2
   179    76    77    1
   180    77    78    1
   181    78    79    2
   182    79    80    1
   183    79    81    1
