@<TRIPOS>MOLECULE
tmp/1jnqA00.pdb
 162 154 0 0 0
SMALL
GASTEIGER

@<TRIPOS>ATOM
      1  N         13.3190    7.1390   11.6850 N.3   269  LEU269     -0.1245
      2  CA        13.2870    7.2270   13.1470 C.3   269  LEU269      0.1561
      3  C         12.4720    8.4290   13.5960 C.2   269  LEU269      0.2260
      4  O         11.5430    8.3070   14.3960 O.2   269  LEU269     -0.2867
      5  CB        14.6990    7.3920   13.7200 C.3   269  LEU269      0.0270
      6  CG        15.7160    6.2580   13.7950 C.3   269  LEU269      0.0019
      7  CD1       15.0660    5.0160   14.3680 C.3   269  LEU269      0.0001
      8  CD2       16.2940    5.9790   12.4440 C.3   269  LEU269      0.0001
      9  N         21.4570   -6.0390   27.3670 N.3   502  SER502     -0.1217
     10  CA        20.9420   -5.2770   26.2320 C.3   502  SER502      0.1889
     11  C         20.9040   -3.7810   26.5170 C.2   502  SER502      0.2288
     12  O         20.9480   -2.9660   25.5840 O.2   502  SER502     -0.2866
     13  CB        19.5520   -5.7810   25.8100 C.3   502  SER502      0.2089
     14  OG        18.5500   -5.3510   26.7030 O.3   502  SER502     -0.2183
     15  N         24.4990   -2.6460   26.4280 N.3   505  HIS505     -0.1226
     16  CA        24.7820   -2.6010   25.0010 C.3   505  HIS505      0.1752
     17  C         24.1230   -1.3470   24.3980 C.2   505  HIS505      0.2596
     18  O         24.6250   -0.7620   23.4360 O.2   505  HIS505     -0.2718
     19  CB        24.2310   -3.8560   24.3210 C.3   505  HIS505      0.0759
     20  CG        24.2460   -3.7810   22.8290 C.ar  505  HIS505      0.0818
     21  ND1       23.2610   -3.1340   22.1100 N.ar  505  HIS505     -0.2268
     22  CD2       25.1540   -4.2090   21.9250 C.ar  505  HIS505      0.1154
     23  CE1       23.5650   -3.1620   20.8290 C.ar  505  HIS505      0.1986
     24  NE2       24.7050   -3.8100   20.6890 N.ar  505  HIS505     -0.2212
     25  N         22.9930   -0.9610   24.9880 N.am  506  GLN506     -0.1965
     26  CA        22.2000    0.1940   24.5970 C.3   506  GLN506      0.1733
     27  C         22.9860    1.4910   24.5040 C.2   506  GLN506      0.2616
     28  O         23.3070    1.9720   23.4140 O.2   506  GLN506     -0.2715
     29  CB        21.0520    0.3690   25.6140 C.3   506  GLN506      0.0408
     30  CG        20.4910    1.8070   25.7930 C.3   506  GLN506      0.0908
     31  CD        20.3270    2.2290   27.2580 C.2   506  GLN506      0.2608
     32  OE1       21.2920    2.6210   27.9220 O.2   506  GLN506     -0.2717
     33  NE2       19.0970    2.1690   27.7560 N.am  506  GLN506     -0.0878
     34  N         23.2960    2.0520   25.6660 N.am  507  LEU507     -0.1977
     35  CA        23.9810    3.3260   25.7300 C.3   507  LEU507      0.1596
     36  C         25.4850    3.2940   25.8160 C.2   507  LEU507      0.2287
     37  O         26.1330    4.3040   25.5550 O.2   507  LEU507     -0.2864
     38  CB        23.4090    4.1640   26.8760 C.3   507  LEU507      0.0297
     39  CG        22.5180    5.3230   26.4300 C.3   507  LEU507      0.0022
     40  CD1       21.6300    4.9250   25.2710 C.3   507  LEU507      0.0001
     41  CD2       21.6930    5.7900   27.5820 C.3   507  LEU507      0.0001
     42  N         27.0750    0.5610   22.2400 N.3   510  HIS510     -0.1226
     43  CA        26.6390    1.1800   20.9950 C.3   510  HIS510      0.1752
     44  C         26.6200    2.7130   21.0140 C.2   510  HIS510      0.2596
     45  O         27.3570    3.3290   20.2500 O.2   510  HIS510     -0.2718
     46  CB        25.2900    0.5990   20.5470 C.3   510  HIS510      0.0759
     47  CG        24.7450    1.2010   19.2850 C.ar  510  HIS510      0.0818
     48  ND1       23.4420    1.5960   19.1390 N.ar  510  HIS510     -0.2268
     49  CD2       25.3380    1.4720   18.0950 C.ar  510  HIS510      0.1154
     50  CE1       23.2770    2.0770   17.9160 C.ar  510  HIS510      0.1986
     51  NE2       24.3930    2.0370   17.2230 N.ar  510  HIS510     -0.2212
     52  N         25.8070    3.3350   21.8740 N.am  511  TRP511     -0.1976
     53  CA        25.7580    4.8010   21.9000 C.3   511  TRP511      0.1640
     54  C         27.0100    5.5060   22.4080 C.2   511  TRP511      0.2290
     55  O         27.4530    6.4800   21.8000 O.2   511  TRP511     -0.2864
     56  CB        24.5080    5.3280   22.6160 C.3   511  TRP511      0.0576
     57  CG        24.6050    6.8010   22.9900 C.ar  511  TRP511      0.0006
     58  CD1       24.9560    7.3100   24.2100 C.ar  511  TRP511      0.0946
     59  CD2       24.4130    7.9380   22.1280 C.ar  511  TRP511      0.0152
     60  NE1       25.0030    8.6820   24.1660 N.ar  511  TRP511     -0.2442
     61  CE2       24.6760    9.0980   22.9030 C.ar  511  TRP511      0.0810
     62  CE3       24.0580    8.0930   20.7790 C.ar  511  TRP511      0.0012
     63  CZ2       24.5950   10.3920   22.3750 C.ar  511  TRP511      0.0191
     64  CZ3       23.9800    9.3830   20.2530 C.ar  511  TRP511      0.0001
     65  CH2       24.2500   10.5160   21.0540 C.ar  511  TRP511      0.0015
     66  N         28.9640    6.1000   18.8290 N.3   515  HIS515     -0.1241
     67  CA        28.3150    7.3820   18.5460 C.3   515  HIS515      0.1621
     68  C         28.8320    8.6360   19.2560 C.2   515  HIS515      0.2264
     69  O         29.2280    9.6030   18.6080 O.2   515  HIS515     -0.2867
     70  CB        26.8080    7.2610   18.8080 C.3   515  HIS515      0.0745
     71  CG        26.0540    6.5550   17.7230 C.ar  515  HIS515      0.0817
     72  ND1       25.4680    7.1950   16.6570 N.ar  515  HIS515     -0.2268
     73  CD2       25.7840    5.2360   17.5570 C.ar  515  HIS515      0.1154
     74  CE1       24.8750    6.2730   15.8920 C.ar  515  HIS515      0.1986
     75  NE2       25.0350    5.0600   16.3880 N.ar  515  HIS515     -0.2212
     76  N         23.0620   11.5790   12.5270 N.3   549  ILE549     -0.1245
     77  CA        22.3960   10.5560   13.3410 C.3   549  ILE549      0.1561
     78  C         22.4170   10.9350   14.8370 C.2   549  ILE549      0.2260
     79  O         21.4330   10.7080   15.5470 O.2   549  ILE549     -0.2867
     80  CB        23.0200    9.1380   13.1170 C.3   549  ILE549      0.0252
     81  CG1       22.3180    8.0830   13.9780 C.3   549  ILE549      0.0019
     82  CG2       24.4910    9.1390   13.4610 C.3   549  ILE549      0.0019
     83  CD1       20.8600    7.8880   13.6490 C.3   549  ILE549      0.0001
     84  N         19.5390   11.5850   17.4120 N.3   553  ALA553     -0.1245
     85  CA        19.6110   10.8710   18.6800 C.3   553  ALA553      0.1562
     86  C         19.2370   11.8000   19.8410 C.2   553  ALA553      0.2260
     87  O         18.3640   11.4820   20.6340 O.2   553  ALA553     -0.2867
     88  CB        21.0090   10.2780   18.8780 C.3   553  ALA553      0.0290
     89  N         15.9960    9.9090   20.4010 N.3   557  LEU557     -0.1231
     90  CA        16.4120    8.6360   20.9790 C.3   557  LEU557      0.1693
     91  C         16.8220    8.6060   22.4260 C.2   557  LEU557      0.2591
     92  O         16.4170    7.7340   23.1760 O.2   557  LEU557     -0.2718
     93  CB        17.5780    8.0510   20.1640 C.3   557  LEU557      0.0284
     94  CG        17.3270    7.2400   18.8890 C.3   557  LEU557      0.0019
     95  CD1       15.8550    7.3020   18.4840 C.3   557  LEU557      0.0001
     96  CD2       18.2370    7.7330   17.7770 C.3   557  LEU557      0.0001
     97  N         17.6670    9.5400   22.8110 N.am  558  VAL558     -0.1980
     98  CA        18.1880    9.5360   24.1570 C.3   558  VAL558      0.1595
     99  C         17.7970   10.8110   24.9410 C.2   558  VAL558      0.2287
    100  O         18.4700   11.2200   25.8900 O.2   558  VAL558     -0.2864
    101  CB        19.7250    9.2620   24.0510 C.3   558  VAL558      0.0276
    102  CG1       20.5320   10.5490   23.8330 C.3   558  VAL558      0.0022
    103  CG2       20.2070    8.4390   25.1950 C.3   558  VAL558      0.0022
    104  N         14.5050    5.6390   24.0590 N.3   564  ILE564     -0.1245
    105  CA        15.3810    4.8080   24.8610 C.3   564  ILE564      0.1561
    106  C         14.9660    4.7360   26.3240 C.2   564  ILE564      0.2260
    107  O         15.1430    3.6940   26.9750 O.2   564  ILE564     -0.2867
    108  CB        16.8760    5.2030   24.6670 C.3   564  ILE564      0.0252
    109  CG1       17.5610    4.1260   23.8330 C.3   564  ILE564      0.0019
    110  CG2       17.6090    5.3920   25.9990 C.3   564  ILE564      0.0019
    111  CD1       16.9440    3.9360   22.4640 C.3   564  ILE564      0.0001
    112  N         14.0350    0.8990   27.6790 N.3   568  PHE568     -0.1241
    113  CA        15.1230    0.2710   28.4180 C.3   568  PHE568      0.1605
    114  C         15.1250    0.3550   29.9300 C.2   568  PHE568      0.2264
    115  O         14.5980    1.2890   30.5250 O.2   568  PHE568     -0.2867
    116  CB        16.4730    0.6840   27.8260 C.3   568  PHE568      0.0534
    117  CG        16.6430    0.2500   26.4020 C.ar  568  PHE568     -0.0203
    118  CD1       17.2460   -0.9680   26.1020 C.ar  568  PHE568     -0.0042
    119  CD2       16.1020    1.0040   25.3670 C.ar  568  PHE568     -0.0042
    120  CE1       17.3010   -1.4390   24.7910 C.ar  568  PHE568     -0.0003
    121  CE2       16.1500    0.5400   24.0500 C.ar  568  PHE568     -0.0003
    122  CZ        16.7470   -0.6850   23.7620 C.ar  568  PHE568     -0.0000
    123  N         21.2330   -6.3680   15.5650 N.3   708  GLN708     -0.1245
    124  CA        20.2100   -5.9830   16.5370 C.3   708  GLN708      0.1566
    125  C         18.8540   -6.6350   16.3190 C.2   708  GLN708      0.2260
    126  O         18.2970   -7.2300   17.2420 O.2   708  GLN708     -0.2867
    127  CB        20.0700   -4.4600   16.6440 C.3   708  GLN708      0.0367
    128  CG        21.2070   -3.8000   17.4400 C.3   708  GLN708      0.0905
    129  CD        20.9250   -2.3590   17.7840 C.2   708  GLN708      0.2608
    130  OE1       20.2310   -2.0720   18.7570 O.2   708  GLN708     -0.2717
    131  NE2       21.4440   -1.4440   16.9820 N.am  708  GLN708     -0.0878
    132  N         12.2480    0.2450   15.8780 N.3   761  VAL761     -0.1231
    133  CA        13.4290    1.0960   15.9580 C.3   761  VAL761      0.1692
    134  C         14.7100    0.3320   15.5930 C.2   761  VAL761      0.2591
    135  O         15.4690    0.7890   14.7340 O.2   761  VAL761     -0.2718
    136  CB        13.5520    1.7500   17.3620 C.3   761  VAL761      0.0266
    137  CG1       14.8880    2.4950   17.5120 C.3   761  VAL761      0.0020
    138  CG2       12.3760    2.7010   17.5910 C.3   761  VAL761      0.0020
    139  N         14.9500   -0.8200   16.2320 N.am  762  ILE762     -0.1980
    140  CA        16.1430   -1.6350   15.9390 C.3   762  ILE762      0.1595
    141  C         16.0720   -2.2600   14.5500 C.2   762  ILE762      0.2287
    142  O         17.0530   -2.8100   14.0590 O.2   762  ILE762     -0.2864
    143  CB        16.4060   -2.7680   16.9850 C.3   762  ILE762      0.0276
    144  CG1       15.3290   -3.8610   16.9100 C.3   762  ILE762      0.0022
    145  CG2       16.5180   -2.1670   18.3810 C.3   762  ILE762      0.0022
    146  CD1       15.6000   -5.0690   17.8260 C.3   762  ILE762      0.0001
    147  N         17.5720    0.6300   12.3700 N.3   765  LEU765     -0.1245
    148  CA        18.9890    0.6510   12.7300 C.3   765  LEU765      0.1561
    149  C         19.7930   -0.5110   12.1450 C.2   765  LEU765      0.2260
    150  O         20.9880   -0.3670   11.8840 O.2   765  LEU765     -0.2867
    151  CB        19.1290    0.5810   14.2500 C.3   765  LEU765      0.0270
    152  CG        19.0880    1.8240   15.1290 C.3   765  LEU765      0.0019
    153  CD1       17.8700    2.6810   14.8420 C.3   765  LEU765      0.0001
    154  CD2       19.1240    1.3670   16.5780 C.3   765  LEU765      0.0001
    155  N         24.1530    5.0830   10.8880 N.3   849  ILE849     -0.1245
    156  CA        22.8640    4.7860   11.5000 C.3   849  ILE849      0.1561
    157  C         22.9830    4.1170   12.8860 C.2   849  ILE849      0.2260
    158  O         21.9430    3.6850   13.4190 O.2   849  ILE849     -0.2867
    159  CB        21.9780    3.9460   10.5350 C.3   849  ILE849      0.0252
    160  CG1       20.4970    4.0930   10.9080 C.3   849  ILE849      0.0019
    161  CG2       22.4590    2.5070   10.4790 C.3   849  ILE849      0.0019
    162  CD1       19.5830    3.2920   10.0580 C.3   849  ILE849      0.0001
@<TRIPOS>BOND
     1   162   160    1
     2   161   159    1
     3   159   160    1
     4   159   156    1
     5   155   156    1
     6   156   157    1
     7     1     2    1
     8   150   149    2
     9   149   148    1
    10   147   148    1
    11     8     6    1
    12    76    77    1
    13   148   151    1
    14   157   158    2
    15    80    77    1
    16    80    82    1
    17    80    81    1
    18     2     3    1
    19     2     5    1
    20    77    78    1
    21     3     4    2
    22    83    81    1
    23     5     6    1
    24     6     7    1
    25   142   141    2
    26   151   152    1
    27   141   140    1
    28   135   134    2
    29    78    79    2
    30   153   152    1
    31   152   154    1
    32   123   124    1
    33   134   133    1
    34   134   139   am
    35   132   133    1
    36    74    75   ar
    37    74    72   ar
    38   140   139    1
    39   140   143    1
    40   133   136    1
    41   125   124    1
    42   125   126    2
    43    75    73   ar
    44   124   127    1
    45   127   128    1
    46    72    71   ar
    47   144   143    1
    48   144   146    1
    49   131   129   am
    50   143   145    1
    51    51    50   ar
    52    51    49   ar
    53   136   137    1
    54   136   138    1
    55    84    85    1
    56   128   129    1
    57    73    71   ar
    58    71    70    1
    59    96    94    1
    60   129   130    2
    61    50    48   ar
    62    49    47   ar
    63    95    94    1
    64    67    70    1
    65    67    66    1
    66    67    68    1
    67    69    68    2
    68    85    88    1
    69    85    86    1
    70    94    93    1
    71    48    47   ar
    72    47    46    1
    73    86    87    2
    74    93    90    1
    75    45    44    2
    76    64    62   ar
    77    64    65   ar
    78    89    90    1
    79    46    43    1
    80    24    23   ar
    81    24    22   ar
    82    62    59   ar
    83    23    21   ar
    84    90    91    1
    85    43    44    1
    86    43    42    1
    87    44    52   am
    88    65    63   ar
    89    55    54    2
    90    52    53    1
    91    53    54    1
    92    53    56    1
    93    22    20   ar
    94    21    20   ar
    95    59    61   ar
    96    59    57   ar
    97    63    61   ar
    98    91    97   am
    99    91    92    2
   100   111   109    1
   101    56    57    1
   102    97    98    1
   103    20    19    1
   104    61    60   ar
   105    57    58   ar
   106    28    27    2
   107    18    17    2
   108   122   121   ar
   109   122   120   ar
   110   109   108    1
   111   102   101    1
   112   121   119   ar
   113   101    98    1
   114   101   103    1
   115   104   105    1
   116    98    99    1
   117    60    58   ar
   118    19    16    1
   119    17    25   am
   120    17    16    1
   121    27    26    1
   122    27    34   am
   123    26    25    1
   124    26    29    1
   125   108   105    1
   126   108   110    1
   127   120   118   ar
   128   105   106    1
   129    99   100    2
   130    16    15    1
   131    40    39    1
   132   119   117   ar
   133    37    36    2
   134    12    11    2
   135    29    30    1
   136    34    35    1
   137    35    36    1
   138    35    38    1
   139    30    31    1
   140    13    10    1
   141    13    14    1
   142   118   117   ar
   143    10    11    1
   144    10     9    1
   145   106   107    2
   146   117   116    1
   147    39    38    1
   148    39    41    1
   149    31    33   am
   150    31    32    2
   151   112   113    1
   152   116   113    1
   153   113   114    1
   154   114   115    2
