@<TRIPOS>MOLECULE
tmp/1jojA00.pdb
 123 123 0 0 0
SMALL
GASTEIGER

@<TRIPOS>ATOM
      1  N         70.8350   36.0510  115.9070 N.3    11  THR11      -0.1218
      2  CA        70.8430   34.7480  116.5630 C.3    11  THR11       0.1862
      3  C         71.8940   33.7540  116.0440 C.2    11  THR11       0.2287
      4  O         72.1730   32.7440  116.7030 O.2    11  THR11      -0.2866
      5  CB        69.4500   34.0860  116.4810 C.3    11  THR11       0.1770
      6  OG1       69.0250   34.0140  115.1100 O.3    11  THR11      -0.2211
      7  CG2       68.4380   34.8900  117.2820 C.3    11  THR11       0.0375
      8  N         81.2410   35.7550  118.1620 N.3    21  SER21      -0.1202
      9  CA        81.1530   34.3020  118.2130 C.3    21  SER21       0.2020
     10  C         79.9760   33.7760  119.0210 C.2    21  SER21       0.2619
     11  O         80.0250   32.6570  119.5280 O.2    21  SER21      -0.2717
     12  CB        82.4480   33.7330  118.7820 C.3    21  SER21       0.2103
     13  OG        83.2130   33.1340  117.7600 O.3    21  SER21      -0.2182
     14  N         78.9030   34.5510  119.1050 N.am   22  TYR22      -0.1962
     15  CA        77.7520   34.1460  119.9110 C.3    22  TYR22       0.1756
     16  C         76.5320   35.0310  119.6180 C.2    22  TYR22       0.2461
     17  O         76.6640   36.0980  119.0130 O.2    22  TYR22      -0.2730
     18  CB        78.1450   34.2880  121.3850 C.3    22  TYR22       0.0574
     19  CG        78.9120   35.5830  121.6450 C.ar   22  TYR22      -0.0198
     20  CD1       78.3030   36.8340  121.4670 C.ar   22  TYR22      -0.0009
     21  CD2       80.2620   35.5600  122.0030 C.ar   22  TYR22      -0.0009
     22  CE1       79.0160   38.0160  121.6330 C.ar   22  TYR22       0.0417
     23  CE2       80.9820   36.7410  122.1710 C.ar   22  TYR22       0.0417
     24  CZ        80.3540   37.9640  121.9830 C.ar   22  TYR22       0.1957
     25  OH        81.0530   39.1440  122.1440 O.3    22  TYR22      -0.2866
     26  N         75.3290   34.6090  120.0520 N.am   23  PRO23      -0.2727
     27  CA        74.1110   35.3990  119.8230 C.3    23  PRO23       0.1402
     28  C         74.3080   36.7730  120.4610 C.2    23  PRO23       0.2269
     29  O         74.6640   36.8660  121.6330 O.2    23  PRO23      -0.2865
     30  CB        73.0390   34.5850  120.5340 C.3    23  PRO23       0.0296
     31  CG        73.5260   33.1970  120.3530 C.3    23  PRO23       0.0237
     32  CD        74.9950   33.3260  120.6870 C.3    23  PRO23       0.0939
     33  N         72.2870   36.4850  125.7650 N.3    41  ASN41      -0.1225
     34  CA        71.9460   35.1100  126.1150 C.3    41  ASN41       0.1785
     35  C         70.5200   34.8130  125.6800 C.2    41  ASN41       0.2597
     36  O         69.5760   34.8910  126.4690 O.2    41  ASN41      -0.2718
     37  CB        72.1170   34.9010  127.6150 C.3    41  ASN41       0.1169
     38  CG        73.5590   35.0390  128.0470 C.2    41  ASN41       0.2627
     39  OD1       74.2120   34.0540  128.3930 O.2    41  ASN41      -0.2716
     40  ND2       74.0760   36.2640  128.0100 N.am   41  ASN41      -0.0877
     41  N         70.3870   34.4760  124.4040 N.am   42  MET42      -0.1965
     42  CA        69.1110   34.1750  123.7750 C.3    42  MET42       0.1736
     43  C         68.4760   32.9120  124.3610 C.2    42  MET42       0.2616
     44  O         69.1290   31.8820  124.4350 O.2    42  MET42      -0.2715
     45  CB        69.3630   34.0170  122.2700 C.3    42  MET42       0.0427
     46  CG        68.1380   33.9710  121.4040 C.3    42  MET42       0.0599
     47  SD        67.3600   32.3730  121.4270 S.3    42  MET42      -0.1393
     48  CE        68.0320   31.6590  119.9780 C.3    42  MET42       0.0692
     49  N         67.2190   32.9810  124.7940 N.am   43  GLN43      -0.1963
     50  CA        66.5590   31.7870  125.3380 C.3    43  GLN43       0.1733
     51  C         65.5180   31.2520  124.3730 C.2    43  GLN43       0.2616
     52  O         64.4090   31.7830  124.2730 O.2    43  GLN43      -0.2715
     53  CB        65.8730   32.0590  126.6710 C.3    43  GLN43       0.0408
     54  CG        66.7920   32.4460  127.7840 C.3    43  GLN43       0.0908
     55  CD        66.0180   32.7860  129.0300 C.2    43  GLN43       0.2608
     56  OE1       66.3800   33.7020  129.7770 O.2    43  GLN43      -0.2717
     57  NE2       64.9350   32.0530  129.2670 N.am   43  GLN43      -0.0878
     58  N         65.8800   30.1810  123.6780 N.am   44  ASN44      -0.1958
     59  CA        64.9880   29.5730  122.7100 C.3    44  ASN44       0.1819
     60  C         63.6210   29.2540  123.3320 C.2    44  ASN44       0.2622
     61  O         63.5430   28.7150  124.4310 O.2    44  ASN44      -0.2715
     62  CB        65.6320   28.2940  122.1580 C.3    44  ASN44       0.1195
     63  CG        64.8210   27.6550  121.0440 C.2    44  ASN44       0.2630
     64  OD1       63.6400   27.9600  120.8500 O.2    44  ASN44      -0.2716
     65  ND2       65.4520   26.7480  120.3130 N.am   44  ASN44      -0.0877
     66  N         62.5490   29.6280  122.6350 N.am   45  GLY45      -0.1940
     67  CA        61.2110   29.3300  123.1040 C.3    45  GLY45       0.2014
     68  C         60.6230   30.2430  124.1490 C.2    45  GLY45       0.2638
     69  O         59.4800   30.0410  124.5370 O.2    45  GLY45      -0.2714
     70  N         61.3730   31.2370  124.6120 N.am   46  LYS46      -0.1977
     71  CA        60.8510   32.1560  125.6320 C.3    46  LYS46       0.1596
     72  C         60.4610   33.5210  125.0650 C.2    46  LYS46       0.2287
     73  O         61.1000   34.0280  124.1420 O.2    46  LYS46      -0.2864
     74  CB        61.8860   32.3720  126.7390 C.3    46  LYS46       0.0298
     75  CG        62.3910   31.1040  127.4040 C.3    46  LYS46       0.0038
     76  CD        61.2670   30.2950  128.0400 C.3    46  LYS46       0.0206
     77  CE        61.8070   29.0260  128.6790 C.3    46  LYS46       0.1093
     78  NZ        60.7270   28.1710  129.2340 N.3    46  LYS46      -0.1314
     79  N         61.5080   30.7920  118.2550 N.3   200  LYS200     -0.1231
     80  CA        61.4650   29.3630  118.5690 C.3   200  LYS200      0.1693
     81  C         62.2120   28.5310  117.5340 C.2   200  LYS200      0.2593
     82  O         62.0270   28.7190  116.3320 O.2   200  LYS200     -0.2718
     83  CB        60.0100   28.9170  118.6390 C.3   200  LYS200      0.0285
     84  CG        59.7970   27.4870  119.0610 C.3   200  LYS200      0.0035
     85  CD        58.3140   27.1620  119.0300 C.3   200  LYS200      0.0206
     86  CE        57.5450   27.9030  120.1220 C.3   200  LYS200      0.1093
     87  NZ        57.6930   29.3900  120.0660 N.3   200  LYS200     -0.1314
     88  N         63.0460   27.6050  118.0010 N.am  201  SER201     -0.1939
     89  CA        63.8280   26.7690  117.0950 C.3   201  SER201      0.2040
     90  C         63.8650   25.2970  117.4880 C.2   201  SER201      0.2485
     91  O         64.6440   24.9060  118.3580 O.2   201  SER201     -0.2729
     92  CB        65.2560   27.3020  117.0270 C.3   201  SER201      0.2129
     93  OG        66.0740   26.4430  116.2590 O.3   201  SER201     -0.2179
     94  N         63.0270   24.4570  116.8560 N.am  202  PRO202     -0.2726
     95  CA        62.9600   23.0120  117.1250 C.3   202  PRO202      0.1402
     96  C         64.3440   22.3530  117.1980 C.2   202  PRO202      0.2269
     97  O         64.6300   21.6200  118.1420 O.2   202  PRO202     -0.2865
     98  CB        62.1160   22.5070  115.9670 C.3   202  PRO202      0.0296
     99  CG        61.1020   23.5750  115.8630 C.3   202  PRO202      0.0237
    100  CD        61.9420   24.8480  115.9400 C.3   202  PRO202      0.0939
    101  N         67.6720   23.1060  118.1240 N.3   204  SER204     -0.1202
    102  CA        68.3810   24.1740  118.8490 C.3   204  SER204      0.2020
    103  C         69.5680   24.7900  118.1100 C.2   204  SER204      0.2619
    104  O         70.7170   24.7330  118.5730 O.2   204  SER204     -0.2717
    105  CB        68.8290   23.6730  120.2200 C.3   204  SER204      0.2103
    106  OG        68.1850   24.4010  121.2340 O.3   204  SER204     -0.2182
    107  N         69.2640   25.3970  116.9800 N.am  205  HIS205     -0.1961
    108  CA        70.2620   26.0180  116.1320 C.3   205  HIS205      0.1772
    109  C         69.5200   27.0470  115.2900 C.2   205  HIS205      0.2462
    110  O         69.2980   26.8590  114.0920 O.2   205  HIS205     -0.2730
    111  CB        70.9280   24.9520  115.2540 C.3   205  HIS205      0.0785
    112  CG        72.3390   25.2760  114.8760 C.ar  205  HIS205      0.0821
    113  ND1       72.6560   26.0950  113.8170 N.ar  205  HIS205     -0.2267
    114  CD2       73.5150   24.9050  115.4340 C.ar  205  HIS205      0.1154
    115  CE1       73.9690   26.2150  113.7360 C.ar  205  HIS205      0.1986
    116  NE2       74.5140   25.5020  114.7050 N.ar  205  HIS205     -0.2212
    117  N         69.1090   28.1490  115.9330 N.am  206  PRO206     -0.2727
    118  CA        68.3710   29.2820  115.3680 C.3   206  PRO206      0.1402
    119  C         69.1700   30.1260  114.3860 C.2   206  PRO206      0.2269
    120  O         70.3990   30.0420  114.3270 O.2   206  PRO206     -0.2865
    121  CB        67.9850   30.0970  116.6020 C.3   206  PRO206      0.0296
    122  CG        68.0220   29.1090  117.7130 C.3   206  PRO206      0.0237
    123  CD        69.2370   28.3000  117.3860 C.3   206  PRO206      0.0939
@<TRIPOS>BOND
     1   115   113   ar
     2   115   116   ar
     3   113   112   ar
     4   110   109    2
     5   120   119    2
     6   119   118    1
     7   116   114   ar
     8   112   111    1
     9   112   114   ar
    10     6     5    1
    11   111   108    1
    12   109   117   am
    13   109   108    1
    14   118   117    1
    15   118   121    1
    16    99   100    1
    17    99    98    1
    18     1     2    1
    19   117   123    1
    20   100    94    1
    21    98    95    1
    22     3     2    1
    23     3     4    2
    24   108   107    1
    25    93    92    1
    26    82    81    2
    27     5     2    1
    28     5     7    1
    29   121   122    1
    30    94    95    1
    31    94    90   am
    32   107   103   am
    33    92    89    1
    34    89    90    1
    35    89    88    1
    36    95    96    1
    37    96    97    2
    38   123   122    1
    39    90    91    2
    40    81    88   am
    41    81    80    1
    42    13    12    1
    43   103   104    2
    44   103   102    1
    45   101   102    1
    46     8     9    1
    47     9    12    1
    48     9    10    1
    49    79    80    1
    50    80    83    1
    51    83    84    1
    52   102   105    1
    53    17    16    2
    54    10    14   am
    55    10    11    2
    56    85    84    1
    57    85    86    1
    58    14    15    1
    59    16    15    1
    60    16    26   am
    61    27    26    1
    62    27    28    1
    63    27    30    1
    64    15    18    1
    65    48    47    1
    66    26    32    1
    67    87    86    1
    68   105   106    1
    69    65    63   am
    70    31    30    1
    71    31    32    1
    72    28    29    2
    73    64    63    2
    74    63    62    1
    75    18    19    1
    76    46    47    1
    77    46    45    1
    78    20    22   ar
    79    20    19   ar
    80    22    24   ar
    81    19    21   ar
    82    24    25    1
    83    24    23   ar
    84    21    23   ar
    85    62    59    1
    86    45    42    1
    87    66    67    1
    88    66    60   am
    89    59    60    1
    90    59    58    1
    91    67    68    1
    92    60    61    2
    93    58    51   am
    94    42    43    1
    95    42    41    1
    96    73    72    2
    97    68    69    2
    98    68    70   am
    99    52    51    2
   100    43    44    2
   101    43    49   am
   102    51    50    1
   103    41    35   am
   104    70    71    1
   105    49    50    1
   106    72    71    1
   107    50    53    1
   108    71    74    1
   109    35    34    1
   110    35    36    2
   111    33    34    1
   112    34    37    1
   113    53    54    1
   114    74    75    1
   115    75    76    1
   116    37    38    1
   117    54    55    1
   118    40    38   am
   119    76    77    1
   120    38    39    2
   121    77    78    1
   122    55    57   am
   123    55    56    2
