@<TRIPOS>MOLECULE
tmp/1jolB00.pdb
 188 182 0 0 0
SMALL
GASTEIGER

@<TRIPOS>ATOM
      1  N         15.6630   67.7440   53.5160 N.3     5  ILE5       -0.1231
      2  CA        15.1340   67.1850   52.2870 C.3     5  ILE5        0.1692
      3  C         16.1790   66.2940   51.6980 C.2     5  ILE5        0.2592
      4  O         17.3270   66.7170   51.4920 O.2     5  ILE5       -0.2718
      5  CB        14.4360   68.1520   51.3380 C.3     5  ILE5        0.0266
      6  CG1       14.0310   67.3420   50.0840 C.3     5  ILE5        0.0019
      7  CG2       15.4390   69.2400   50.9680 C.3     5  ILE5        0.0020
      8  CD1       13.1020   68.1270   49.1860 C.3     5  ILE5        0.0001
      9  N         15.8090   65.0230   51.4840 N.am    6  ALA6       -0.1966
     10  CA        16.7830   64.0340   50.9870 C.3     6  ALA6        0.1728
     11  C         16.1500   62.8710   50.1540 C.2     6  ALA6        0.2616
     12  O         14.9600   62.6170   50.1850 O.2     6  ALA6       -0.2715
     13  CB        17.5090   63.4600   52.2320 C.3     6  ALA6        0.0334
     14  N         16.9920   62.1850   49.3690 N.am    7  ALA7       -0.1977
     15  CA        16.6140   61.0400   48.5400 C.3     7  ALA7        0.1597
     16  C         17.4330   59.8970   49.1420 C.2     7  ALA7        0.2287
     17  O         18.6630   59.9560   49.1540 O.2     7  ALA7       -0.2864
     18  CB        16.9580   61.3370   47.0660 C.3     7  ALA7        0.0319
     19  N         22.6750   57.8720   50.8760 N.3    14  ILE14      -0.1245
     20  CA        22.3340   59.1280   50.2430 C.3    14  ILE14       0.1561
     21  C         23.3980   59.5130   49.2100 C.2    14  ILE14       0.2260
     22  O         23.1130   60.2290   48.2350 O.2    14  ILE14      -0.2867
     23  CB        22.0400   60.2430   51.2330 C.3    14  ILE14       0.0252
     24  CG1       23.2350   60.3580   52.1850 C.3    14  ILE14       0.0019
     25  CG2       20.7150   60.1050   52.0050 C.3    14  ILE14       0.0019
     26  CD1       23.0820   61.4680   53.2100 C.3    14  ILE14       0.0001
     27  N         24.9540   59.3540   41.8340 N.3    20  MET20      -0.1245
     28  CA        24.0580   58.2340   42.1190 C.3    20  MET20       0.1570
     29  C         23.5990   57.6770   40.7910 C.2    20  MET20       0.2261
     30  O         23.3300   58.4380   39.8690 O.2    20  MET20      -0.2867
     31  CB        22.8520   58.6900   42.9220 C.3    20  MET20       0.0387
     32  CG        23.2190   59.3360   44.2450 C.3    20  MET20       0.0595
     33  SD        24.1680   58.2160   45.3300 S.3    20  MET20      -0.1393
     34  CE        22.8380   57.2750   46.1330 C.3    20  MET20       0.0692
     35  N         21.0650   56.7270   39.1160 N.3    22  TRP22      -0.1241
     36  CA        19.6670   56.7820   38.8450 C.3    22  TRP22       0.1605
     37  C         19.3480   58.0540   38.1220 C.2    22  TRP22       0.2264
     38  O         20.1440   59.0010   38.1690 O.2    22  TRP22      -0.2867
     39  CB        18.8350   56.6740   40.1140 C.3    22  TRP22       0.0550
     40  CG        19.0220   57.6780   41.2380 C.ar   22  TRP22       0.0003
     41  CD1       18.7690   58.9900   41.1960 C.ar   22  TRP22       0.0946
     42  CD2       19.3860   57.4110   42.6170 C.ar   22  TRP22       0.0152
     43  NE1       18.9530   59.5880   42.4300 N.ar   22  TRP22      -0.2442
     44  CE2       19.3170   58.6480   43.3240 C.ar   22  TRP22       0.0810
     45  CE3       19.7630   56.2620   43.3140 C.ar   22  TRP22       0.0012
     46  CZ2       19.5880   58.7710   44.6720 C.ar   22  TRP22       0.0191
     47  CZ3       20.0580   56.3980   44.6790 C.ar   22  TRP22       0.0001
     48  CH2       19.9830   57.6360   45.3290 C.ar   22  TRP22       0.0015
     49  N         11.7740   63.2660   40.8270 N.3    27  ASP27      -0.1225
     50  CA        12.2300   63.5230   42.1780 C.3    27  ASP27       0.1805
     51  C         12.8280   64.9110   42.1850 C.2    27  ASP27       0.2598
     52  O         12.7090   65.6660   43.1340 O.2    27  ASP27      -0.2718
     53  CB        13.2420   62.4380   42.6650 C.3    27  ASP27       0.1424
     54  CG        13.8840   62.8480   43.9650 C.2    27  ASP27       0.3668
     55  OD1       13.2680   63.1160   44.9650 O.co2  27  ASP27      -0.2456
     56  OD2       15.1790   62.8920   43.8890 O.co2  27  ASP27      -0.2456
     57  N         13.5110   65.2370   41.1070 N.am   28  LEU28      -0.1966
     58  CA        14.1120   66.5620   41.0130 C.3    28  LEU28       0.1728
     59  C         12.9820   67.5720   40.9310 C.2    28  LEU28       0.2616
     60  O         13.0570   68.6560   41.4750 O.2    28  LEU28      -0.2715
     61  CB        15.1850   66.7960   39.9210 C.3    28  LEU28       0.0311
     62  CG        16.5310   66.0540   40.1930 C.3    28  LEU28       0.0022
     63  CD1       17.5840   66.3760   39.1500 C.3    28  LEU28       0.0001
     64  CD2       17.1460   66.2940   41.6070 C.3    28  LEU28       0.0001
     65  N         11.9080   67.2500   40.2380 N.am   29  ALA29      -0.1963
     66  CA        10.8230   68.1920   40.2290 C.3    29  ALA29       0.1728
     67  C         10.2170   68.3210   41.6360 C.2    29  ALA29       0.2616
     68  O          9.7880   69.3930   42.0790 O.2    29  ALA29      -0.2715
     69  CB         9.7350   67.6240   39.3180 C.3    29  ALA29       0.0334
     70  N         10.1190   67.2420   42.3870 N.am   30  TRP30      -0.1960
     71  CA         9.5440   67.3620   43.7740 C.3    30  TRP30       0.1771
     72  C         10.4660   68.2760   44.6730 C.2    30  TRP30       0.2620
     73  O         10.0830   69.1040   45.5130 O.2    30  TRP30      -0.2715
     74  CB         9.5090   65.9070   44.3380 C.3    30  TRP30       0.0590
     75  CG         9.4700   65.6540   45.8320 C.ar   30  TRP30       0.0006
     76  CD1       10.5430   65.3720   46.6340 C.ar   30  TRP30       0.0946
     77  CD2        8.3280   65.6750   46.7360 C.ar   30  TRP30       0.0152
     78  NE1       10.1820   65.1920   47.9490 N.ar   30  TRP30      -0.2442
     79  CE2        8.8210   65.3370   48.0520 C.ar   30  TRP30       0.0810
     80  CE3        6.9510   65.8710   46.5510 C.ar   30  TRP30       0.0012
     81  CZ2        7.9850   65.1990   49.1690 C.ar   30  TRP30       0.0191
     82  CZ3        6.1130   65.7440   47.6700 C.ar   30  TRP30       0.0001
     83  CH2        6.6190   65.4470   48.9330 C.ar   30  TRP30       0.0015
     84  N         11.7780   68.0980   44.5000 N.am   31  PHE31      -0.1960
     85  CA        12.8140   68.8380   45.2350 C.3    31  PHE31       0.1771
     86  C         12.6450   70.3340   44.9340 C.2    31  PHE31       0.2619
     87  O         12.6010   71.1980   45.8350 O.2    31  PHE31      -0.2715
     88  CB        14.2430   68.3950   44.7850 C.3    31  PHE31       0.0574
     89  CG        15.3320   69.2170   45.4690 C.ar   31  PHE31      -0.0200
     90  CD1       15.7440   70.4270   44.9060 C.ar   31  PHE31      -0.0042
     91  CD2       15.9550   68.7840   46.6540 C.ar   31  PHE31      -0.0042
     92  CE1       16.7630   71.1720   45.5190 C.ar   31  PHE31      -0.0003
     93  CE2       16.9570   69.5320   47.2860 C.ar   31  PHE31      -0.0003
     94  CZ        17.3800   70.7210   46.6920 C.ar   31  PHE31      -0.0000
     95  N         12.5130   70.6300   43.6310 N.am   32  LYS32      -0.1977
     96  CA        12.3310   72.0560   43.2690 C.3    32  LYS32       0.1596
     97  C         11.0460   72.6300   43.8570 C.2    32  LYS32       0.2287
     98  O         11.0080   73.7310   44.4070 O.2    32  LYS32      -0.2864
     99  CB        12.2720   72.1920   41.7970 C.3    32  LYS32       0.0298
    100  CG        12.3830   73.6700   41.3940 C.3    32  LYS32       0.0038
    101  CD        11.9940   73.7440   39.9380 C.3    32  LYS32       0.0206
    102  CE        12.1940   75.1190   39.2880 C.3    32  LYS32       0.1093
    103  NZ        11.7330   75.1860   37.8800 N.3    32  LYS32      -0.1314
    104  N         28.2100   68.8850   48.3380 N.3    46  THR46      -0.1218
    105  CA        26.8850   68.9450   47.7000 C.3    46  THR46       0.1862
    106  C         26.9310   70.1430   46.7720 C.2    46  THR46       0.2287
    107  O         26.4310   70.0210   45.6560 O.2    46  THR46      -0.2866
    108  CB        25.7360   69.1010   48.7010 C.3    46  THR46       0.1770
    109  OG1       25.6070   67.8920   49.3890 O.3    46  THR46      -0.2211
    110  CG2       24.4400   69.5060   48.0520 C.3    46  THR46       0.0375
    111  N         28.7420   69.2550   43.8010 N.3    49  SER49      -0.1202
    112  CA        27.9910   68.3130   42.9900 C.3    49  SER49       0.2020
    113  C         26.9340   68.9930   42.1460 C.2    49  SER49       0.2618
    114  O         26.7620   68.6560   40.9780 O.2    49  SER49      -0.2717
    115  CB        27.3010   67.2250   43.8150 C.3    49  SER49       0.2103
    116  OG        28.3440   66.5800   44.5520 O.3    49  SER49      -0.2182
    117  N         26.2240   69.9270   42.7520 N.am   50  ILE50      -0.1979
    118  CA        25.1580   70.6330   42.0900 C.3    50  ILE50       0.1595
    119  C         25.6670   71.3260   40.8630 C.2    50  ILE50       0.2287
    120  O         25.0840   71.2880   39.7730 O.2    50  ILE50      -0.2864
    121  CB        24.3140   71.4650   43.0330 C.3    50  ILE50       0.0276
    122  CG1       23.3370   70.4990   43.7010 C.3    50  ILE50       0.0022
    123  CG2       23.5120   72.4240   42.1760 C.3    50  ILE50       0.0022
    124  CD1       23.0490   70.7950   45.1610 C.3    50  ILE50       0.0001
    125  N         26.1470   74.6160   40.4150 N.3    52  ARG52      -0.1245
    126  CA        25.7300   75.9660   40.1460 C.3    52  ARG52       0.1563
    127  C         24.7620   76.2410   41.2420 C.2    52  ARG52       0.2260
    128  O         24.2820   75.2870   41.8990 O.2    52  ARG52      -0.2867
    129  CB        24.9060   75.9950   38.8510 C.3    52  ARG52       0.0307
    130  CG        23.6990   75.0720   39.0960 C.3    52  ARG52       0.0489
    131  CD        22.4190   75.2890   38.2740 C.3    52  ARG52       0.2205
    132  NE        21.5500   74.1040   38.2870 N.pl3  52  ARG52      -0.0865
    133  CZ        20.2950   74.0240   37.8080 C.cat  52  ARG52       0.5346
    134  NH1       19.6420   75.0550   37.2360 N.pl3  52  ARG52       0.1354
    135  NH2       19.6600   72.8530   37.9030 N.pl3  52  ARG52       0.1354
    136  N         21.3290   77.0680   42.9250 N.3    54  LEU54      -0.1231
    137  CA        20.0110   76.5950   42.5830 C.3    54  LEU54       0.1678
    138  C         19.1730   77.8730   42.2900 C.2    54  LEU54       0.2434
    139  O         19.1140   78.7440   43.1130 O.2    54  LEU54      -0.2733
    140  CB        19.4160   75.7060   43.7240 C.3    54  LEU54       0.0284
    141  CG        20.0140   74.2960   43.8140 C.3    54  LEU54       0.0019
    142  CD1       19.6850   73.7530   45.1930 C.3    54  LEU54       0.0001
    143  CD2       19.3860   73.4020   42.7700 C.3    54  LEU54       0.0001
    144  N         18.5310   78.0300   41.1450 N.am   55  PRO55      -0.2729
    145  CA        17.7850   79.2640   40.9080 C.3    55  PRO55       0.1401
    146  C         16.6180   79.4970   41.7790 C.2    55  PRO55       0.2269
    147  O         15.9200   78.5740   42.1710 O.2    55  PRO55      -0.2865
    148  CB        17.1350   79.1180   39.5230 C.3    55  PRO55       0.0296
    149  CG        17.1500   77.6270   39.2040 C.3    55  PRO55       0.0237
    150  CD        18.2380   76.9900   40.0690 C.3    55  PRO55       0.0939
    151  N         16.4070   80.4520   44.8180 N.3    57  ARG57      -0.1245
    152  CA        16.5820   80.1020   46.1870 C.3    57  ARG57       0.1563
    153  C         17.8370   80.8160   46.7190 C.2    57  ARG57       0.2260
    154  O         18.8030   81.0660   46.0210 O.2    57  ARG57      -0.2867
    155  CB        16.7260   78.5850   46.3670 C.3    57  ARG57       0.0307
    156  CG        15.3820   77.8460   46.3530 C.3    57  ARG57       0.0489
    157  CD        15.6350   76.3920   45.8260 C.3    57  ARG57       0.2205
    158  NE        15.7650   76.4580   44.3430 N.pl3  57  ARG57      -0.0865
    159  CZ        15.6720   75.3920   43.5170 C.cat  57  ARG57       0.5346
    160  NH1       15.5080   74.1300   43.9750 N.pl3  57  ARG57       0.1354
    161  NH2       15.8030   75.5900   42.1960 N.pl3  57  ARG57       0.1354
    162  N         19.6940   70.7590   52.6590 N.3    94  ILE94      -0.1245
    163  CA        19.8610   69.7980   51.6030 C.3    94  ILE94       0.1561
    164  C         21.0560   68.8200   51.6050 C.2    94  ILE94       0.2260
    165  O         21.3930   68.1750   50.5900 O.2    94  ILE94      -0.2867
    166  CB        19.6520   70.4890   50.2710 C.3    94  ILE94       0.0252
    167  CG1       20.8730   71.3570   49.9900 C.3    94  ILE94       0.0019
    168  CG2       18.4570   71.3820   50.4180 C.3    94  ILE94       0.0019
    169  CD1       20.8410   71.8240   48.5170 C.3    94  ILE94       0.0001
    170  N         23.3370   66.9770   57.3270 N.3   100  TYR100     -0.1241
    171  CA        22.0370   66.4930   57.8110 C.3   100  TYR100      0.1605
    172  C         22.1750   66.1330   59.3300 C.2   100  TYR100      0.2264
    173  O         21.2930   66.4040   60.1510 O.2   100  TYR100     -0.2867
    174  CB        21.6450   65.1520   57.1180 C.3   100  TYR100      0.0534
    175  CG        21.1220   65.3080   55.7040 C.ar  100  TYR100     -0.0201
    176  CD1       20.2310   66.3310   55.3660 C.ar  100  TYR100     -0.0009
    177  CD2       21.5700   64.4280   54.7120 C.ar  100  TYR100     -0.0009
    178  CE1       19.7920   66.4250   54.0420 C.ar  100  TYR100      0.0417
    179  CE2       21.1490   64.5240   53.3840 C.ar  100  TYR100      0.0417
    180  CZ        20.2690   65.5520   53.0610 C.ar  100  TYR100      0.1957
    181  OH        19.8260   65.6480   51.7850 O.3   100  TYR100     -0.2866
    182  N         12.4830   61.0770   49.8340 N.3   113  THR113     -0.1218
    183  CA        12.2000   60.3350   48.6340 C.3   113  THR113      0.1862
    184  C         12.8800   58.9380   48.8370 C.2   113  THR113      0.2287
    185  O         14.0970   58.8050   48.9350 O.2   113  THR113     -0.2866
    186  CB        12.6960   60.9550   47.3100 C.3   113  THR113      0.1770
    187  OG1       12.1430   62.1940   47.1360 O.3   113  THR113     -0.2211
    188  CG2       12.3510   60.0740   46.0930 C.3   113  THR113      0.0375
@<TRIPOS>BOND
     1   134   133    1
     2   133   135    1
     3   133   132    2
     4   103   102    1
     5    37    38    2
     6    37    36    1
     7   131   132    1
     8   131   130    1
     9    36    35    1
    10    36    39    1
    11   129   130    1
    12   129   126    1
    13    63    62    1
    14   149   148    1
    15   149   150    1
    16   102   101    1
    17    69    66    1
    18   148   145    1
    19   120   119    2
    20    30    29    2
    21    61    62    1
    22    61    58    1
    23   101   100    1
    24   150   144    1
    25    39    40    1
    26   126   125    1
    27   126   127    1
    28    62    64    1
    29    66    65    1
    30    66    67    1
    31    65    59   am
    32    29    28    1
    33    49    50    1
    34   119   118    1
    35   145   144    1
    36   145   146    1
    37    59    58    1
    38    59    60    2
    39   114   113    2
    40    58    57    1
    41    57    51   am
    42   144   138   am
    43    41    40   ar
    44    41    43   ar
    45    40    42   ar
    46   127   128    2
    47   100    99    1
    48    67    68    2
    49    67    70   am
    50   146   147    2
    51    99    96    1
    52    27    28    1
    53   118   117    1
    54   118   121    1
    55    28    31    1
    56   113   117   am
    57   113   112    1
    58   123   121    1
    59    50    51    1
    60    50    53    1
    61    51    52    2
    62   161   159    1
    63   138   137    1
    64   138   139    2
    65    70    71    1
    66    43    44   ar
    67   137   136    1
    68   137   140    1
    69    42    45   ar
    70    42    44   ar
    71    53    54    1
    72   143   141    1
    73    31    32    1
    74   112   111    1
    75   112   115    1
    76   121   122    1
    77    96    95    1
    78    96    97    1
    79    45    47   ar
    80    44    46   ar
    81   159   160    1
    82   159   158    2
    83    95    86   am
    84   122   124    1
    85   140   141    1
    86    71    74    1
    87    71    72    1
    88   141   142    1
    89   115   116    1
    90    97    98    2
    91    56    54   ar
    92    54    55   ar
    93    32    33    1
    94    74    75    1
    95   158   157    1
    96    84    72   am
    97    84    85    1
    98    46    48   ar
    99    72    73    2
   100    47    48   ar
   101    88    85    1
   102    88    89    1
   103   151   152    1
   104    90    89   ar
   105    90    92   ar
   106    86    85    1
   107    86    87    2
   108    33    34    1
   109    89    91   ar
   110    92    94   ar
   111   107   106    2
   112   157   156    1
   113    75    76   ar
   114    75    77   ar
   115   154   153    2
   116   188   186    1
   117   152   155    1
   118   152   153    1
   119   156   155    1
   120    80    77   ar
   121    80    82   ar
   122    76    78   ar
   123    91    93   ar
   124    94    93   ar
   125    77    79   ar
   126   106   105    1
   127    18    15    1
   128   187   186    1
   129   186   183    1
   130    82    83   ar
   131   105   104    1
   132   105   108    1
   133    78    79   ar
   134   110   108    1
   135    79    81   ar
   136    22    21    2
   137   169   167    1
   138    15    16    1
   139    15    14    1
   140   183   184    1
   141   183   182    1
   142   108   109    1
   143   184   185    2
   144    83    81   ar
   145    16    17    2
   146     8     6    1
   147    21    20    1
   148    14    11   am
   149   167   166    1
   150     6     5    1
   151    11    12    2
   152    11    10    1
   153    20    19    1
   154    20    23    1
   155   166   168    1
   156   166   163    1
   157   165   164    2
   158     7     5    1
   159    10     9    1
   160    10    13    1
   161    23    25    1
   162    23    24    1
   163     5     2    1
   164     9     3   am
   165     4     3    2
   166   163   164    1
   167   163   162    1
   168     3     2    1
   169   181   180    1
   170    24    26    1
   171     2     1    1
   172   180   179   ar
   173   180   178   ar
   174   179   177   ar
   175   178   176   ar
   176   177   175   ar
   177   176   175   ar
   178   175   174    1
   179   174   171    1
   180   170   171    1
   181   171   172    1
   182   172   173    2
