@<TRIPOS>MOLECULE
tmp/1joqA00.pdb
 132 129 0 0 0
SMALL
GASTEIGER

@<TRIPOS>ATOM
      1  N         -1.5330    3.7510   -5.7230 N.3    35  ARG35      -0.1231
      2  CA        -2.2350    3.2390   -4.5120 C.3    35  ARG35       0.1694
      3  C         -1.7700    1.8100   -4.2180 C.2    35  ARG35       0.2592
      4  O         -1.7780    0.9560   -5.0810 O.2    35  ARG35      -0.2718
      5  CB        -3.7440    3.2470   -4.7580 C.3    35  ARG35       0.0321
      6  CG        -4.4540    2.5500   -3.5960 C.3    35  ARG35       0.0489
      7  CD        -5.2500    3.5800   -2.7930 C.3    35  ARG35       0.2205
      8  NE        -6.2640    2.8790   -1.9560 N.pl3  35  ARG35      -0.0865
      9  CZ        -7.1870    3.5640   -1.3390 C.cat  35  ARG35       0.5346
     10  NH1       -7.6770    4.6430   -1.8870 N.pl3  35  ARG35       0.1354
     11  NH2       -7.6190    3.1720   -0.1710 N.pl3  35  ARG35       0.1354
     12  N         -1.3660    1.5440   -3.0050 N.am   36  LEU36      -0.1966
     13  CA        -0.9010    0.1700   -2.6580 C.3    36  LEU36       0.1728
     14  C         -1.9430   -0.8500   -3.1230 C.2    36  LEU36       0.2616
     15  O         -3.1300   -0.6690   -2.9380 O.2    36  LEU36      -0.2715
     16  CB        -0.7120    0.0630   -1.1440 C.3    36  LEU36       0.0311
     17  CG         0.4570    0.9520   -0.7140 C.3    36  LEU36       0.0022
     18  CD1        0.7600    0.7180    0.7670 C.3    36  LEU36       0.0001
     19  CD2        1.6930    0.6060   -1.5470 C.3    36  LEU36       0.0001
     20  N         -1.5060   -1.9140   -3.7400 N.am   37  LEU37      -0.1963
     21  CA        -2.4660   -2.9410   -4.2340 C.3    37  LEU37       0.1728
     22  C         -2.7050   -4.0150   -3.1680 C.2    37  LEU37       0.2616
     23  O         -1.8380   -4.3280   -2.3780 O.2    37  LEU37      -0.2715
     24  CB        -1.8900   -3.6020   -5.4880 C.3    37  LEU37       0.0311
     25  CG        -2.5280   -2.9850   -6.7340 C.3    37  LEU37       0.0022
     26  CD1       -1.7590   -3.4350   -7.9760 C.3    37  LEU37       0.0001
     27  CD2       -3.9830   -3.4460   -6.8400 C.3    37  LEU37       0.0001
     28  N         -3.8770   -4.5960   -3.1660 N.am   38  LEU38      -0.1977
     29  CA        -4.1950   -5.6760   -2.1850 C.3    38  LEU38       0.1596
     30  C         -4.1950   -5.1380   -0.7500 C.2    38  LEU38       0.2287
     31  O         -3.9750   -5.8770    0.1900 O.2    38  LEU38      -0.2864
     32  CB        -3.1560   -6.7930   -2.3090 C.3    38  LEU38       0.0297
     33  CG        -3.2590   -7.4280   -3.6970 C.3    38  LEU38       0.0022
     34  CD1       -1.9410   -8.1250   -4.0410 C.3    38  LEU38       0.0001
     35  CD2       -4.3930   -8.4560   -3.7020 C.3    38  LEU38       0.0001
     36  N        -12.5410    7.1350    1.4790 N.3    46  HIS46      -0.1227
     37  CA       -12.9350    7.6580    0.1410 C.3    46  HIS46       0.1737
     38  C        -14.3770    7.2500   -0.1800 C.2    46  HIS46       0.2438
     39  O        -15.1810    8.0750   -0.5690 O.2    46  HIS46      -0.2733
     40  CB       -11.9950    7.0890   -0.9240 C.3    46  HIS46       0.0758
     41  CG       -11.2130    8.2080   -1.5560 C.ar   46  HIS46       0.0818
     42  ND1       -9.9270    8.0260   -2.0440 N.ar   46  HIS46      -0.2268
     43  CD2      -11.5200    9.5240   -1.7890 C.ar   46  HIS46       0.1154
     44  CE1       -9.5140    9.2050   -2.5430 C.ar   46  HIS46       0.1986
     45  NE2      -10.4460   10.1530   -2.4130 N.ar   46  HIS46      -0.2212
     46  N        -14.6560    5.9860   -0.0130 N.am   47  PRO47      -0.2729
     47  CA       -15.9900    5.3950   -0.2790 C.3    47  PRO47       0.1401
     48  C        -16.8890    5.5230    0.9530 C.2    47  PRO47       0.2269
     49  O        -16.4880    6.0460    1.9750 O.2    47  PRO47      -0.2865
     50  CB       -15.6650    3.9340   -0.5780 C.3    47  PRO47       0.0296
     51  CG       -14.3290    3.6290    0.1160 C.3    47  PRO47       0.0237
     52  CD       -13.6780    4.9770    0.4650 C.3    47  PRO47       0.0939
     53  N         -6.5770    2.0070  -12.4440 N.3    83  ASP83      -0.1225
     54  CA        -7.9580    1.6190  -12.0410 C.3    83  ASP83       0.1805
     55  C         -8.9700    2.4400  -12.8420 C.2    83  ASP83       0.2598
     56  O         -8.6200    3.1240  -13.7840 O.2    83  ASP83      -0.2718
     57  CB        -8.1450    1.8860  -10.5460 C.3    83  ASP83       0.1424
     58  CG        -7.9240    0.5900   -9.7650 C.2    83  ASP83       0.3668
     59  OD1       -8.3870   -0.4410  -10.2230 O.co2  83  ASP83      -0.2456
     60  OD2       -7.2950    0.6510   -8.7210 O.co2  83  ASP83      -0.2456
     61  N        -10.2230    2.3800  -12.4800 N.am   84  LYS84      -0.1966
     62  CA       -11.2460    3.1640  -13.2270 C.3    84  LYS84       0.1728
     63  C        -11.0360    4.6550  -12.9600 C.2    84  LYS84       0.2616
     64  O        -11.6190    5.5000  -13.6100 O.2    84  LYS84      -0.2715
     65  CB       -12.6470    2.7550  -12.7670 C.3    84  LYS84       0.0311
     66  CG       -12.7050    2.7520  -11.2390 C.3    84  LYS84       0.0038
     67  CD       -14.1640    2.7070  -10.7840 C.3    84  LYS84       0.0206
     68  CE       -14.2570    2.0010   -9.4310 C.3    84  LYS84       0.1093
     69  NZ       -15.3950    2.5660   -8.6530 N.3    84  LYS84      -0.1314
     70  N        -10.2060    4.9870  -12.0090 N.am   85  TYR85      -0.1974
     71  CA        -9.9580    6.4240  -11.7030 C.3    85  TYR85       0.1639
     72  C         -8.6650    6.8740  -12.3910 C.2    85  TYR85       0.2290
     73  O         -8.3120    8.0360  -12.3680 O.2    85  TYR85      -0.2864
     74  CB        -9.8180    6.6100  -10.1910 C.3    85  TYR85       0.0560
     75  CG       -11.1370    6.3190   -9.5150 C.ar   85  TYR85      -0.0198
     76  CD1      -12.1060    7.3250   -9.4040 C.ar   85  TYR85      -0.0009
     77  CD2      -11.3900    5.0430   -8.9970 C.ar   85  TYR85      -0.0009
     78  CE1      -13.3270    7.0540   -8.7740 C.ar   85  TYR85       0.0417
     79  CE2      -12.6110    4.7730   -8.3680 C.ar   85  TYR85       0.0417
     80  CZ       -13.5800    5.7770   -8.2560 C.ar   85  TYR85       0.1957
     81  OH       -14.7830    5.5090   -7.6350 O.3    85  TYR85      -0.2866
     82  N         -5.7860    5.8160  -11.4900 N.3    87  ARG87      -0.1245
     83  CA        -4.6880    5.6900  -10.4900 C.3    87  ARG87       0.1563
     84  C         -3.7090    4.6060  -10.9400 C.2    87  ARG87       0.2260
     85  O         -4.0910    3.6200  -11.5410 O.2    87  ARG87      -0.2867
     86  CB        -5.2750    5.3060   -9.1290 C.3    87  ARG87       0.0307
     87  CG        -6.3860    6.2880   -8.7540 C.3    87  ARG87       0.0489
     88  CD        -6.4950    6.3770   -7.2310 C.3    87  ARG87       0.2205
     89  NE        -7.0280    5.0920   -6.6950 N.pl3  87  ARG87      -0.0865
     90  CZ        -8.3170    4.9060   -6.6070 C.cat  87  ARG87       0.5346
     91  NH1       -9.0820    5.8480   -6.1280 N.pl3  87  ARG87       0.1354
     92  NH2       -8.8400    3.7760   -6.9990 N.pl3  87  ARG87       0.1354
     93  N         -1.4940    1.4230  -10.3730 N.3    89  LEU89      -0.1245
     94  CA        -1.4430    0.3220   -9.3700 C.3    89  LEU89       0.1561
     95  C         -0.1050   -0.4110   -9.4830 C.2    89  LEU89       0.2260
     96  O          0.2500   -0.9210  -10.5270 O.2    89  LEU89      -0.2867
     97  CB        -2.5850   -0.6590   -9.6370 C.3    89  LEU89       0.0270
     98  CG        -3.8710    0.1210   -9.9060 C.3    89  LEU89       0.0019
     99  CD1       -4.9290   -0.8200  -10.4870 C.3    89  LEU89       0.0001
    100  CD2       -4.3860    0.7230   -8.5970 C.3    89  LEU89       0.0001
    101  N         -9.2650   -6.0200   -1.7420 N.3   113  TYR113     -0.1241
    102  CA        -9.1750   -5.6040   -3.1700 C.3   113  TYR113      0.1605
    103  C         -8.4020   -6.6620   -3.9580 C.2   113  TYR113      0.2264
    104  O         -7.2530   -6.4740   -4.3080 O.2   113  TYR113     -0.2867
    105  CB        -8.4500   -4.2600   -3.2660 C.3   113  TYR113      0.0534
    106  CG        -9.3690   -3.1610   -2.7920 C.ar  113  TYR113     -0.0201
    107  CD1      -10.6810   -3.0870   -3.2740 C.ar  113  TYR113     -0.0009
    108  CD2       -8.9080   -2.2140   -1.8700 C.ar  113  TYR113     -0.0009
    109  CE1      -11.5330   -2.0690   -2.8340 C.ar  113  TYR113      0.0417
    110  CE2       -9.7600   -1.1940   -1.4300 C.ar  113  TYR113      0.0417
    111  CZ       -11.0720   -1.1210   -1.9120 C.ar  113  TYR113      0.1957
    112  OH       -11.9120   -0.1160   -1.4780 O.3   113  TYR113     -0.2866
    113  N         -8.4460   -8.6900   -7.4210 N.3   115  TYR115     -0.1241
    114  CA        -9.1010   -8.8940   -8.7420 C.3   115  TYR115      0.1605
    115  C         -8.0760   -9.4430   -9.7350 C.2   115  TYR115      0.2264
    116  O         -7.4170   -8.7030  -10.4370 O.2   115  TYR115     -0.2867
    117  CB        -9.6470   -7.5600   -9.2540 C.3   115  TYR115      0.0534
    118  CG       -10.6990   -7.0520   -8.2980 C.ar  115  TYR115     -0.0201
    119  CD1      -10.3300   -6.2480   -7.2140 C.ar  115  TYR115     -0.0009
    120  CD2      -12.0430   -7.3880   -8.4950 C.ar  115  TYR115     -0.0009
    121  CE1      -11.3050   -5.7790   -6.3240 C.ar  115  TYR115      0.0417
    122  CE2      -13.0190   -6.9190   -7.6070 C.ar  115  TYR115      0.0417
    123  CZ       -12.6490   -6.1150   -6.5210 C.ar  115  TYR115      0.1957
    124  OH       -13.6110   -5.6550   -5.6450 O.3   115  TYR115     -0.2866
    125  N         -4.4830   -9.4120  -10.9500 N.3   118  ASN118     -0.1240
    126  CA        -3.6920   -8.4020  -10.1910 C.3   118  ASN118      0.1653
    127  C         -3.5410   -8.8530   -8.7360 C.2   118  ASN118      0.2266
    128  O         -4.1530   -8.3080   -7.8390 O.2   118  ASN118     -0.2867
    129  CB        -4.4070   -7.0510  -10.2360 C.3   118  ASN118      0.1155
    130  CG        -3.7460   -6.1600  -11.2900 C.2   118  ASN118      0.2627
    131  OD1       -2.8680   -6.5970  -12.0080 O.2   118  ASN118     -0.2716
    132  ND2       -4.1350   -4.9210  -11.4150 N.am  118  ASN118     -0.0877
@<TRIPOS>BOND
     1    56    55    2
     2    64    63    2
     3    62    63    1
     4    62    65    1
     5    62    61    1
     6    63    70   am
     7    55    61   am
     8    55    54    1
     9    65    66    1
    10    53    54    1
    11    72    73    2
    12    72    71    1
    13    54    57    1
    14    70    71    1
    15   131   130    2
    16    71    74    1
    17    85    84    2
    18    82    83    1
    19   132   130   am
    20   130   129    1
    21    66    67    1
    22   125   126    1
    23    84    83    1
    24    67    68    1
    25    57    58    1
    26    96    95    2
    27    83    86    1
    28    99    98    1
    29   116   115    2
    30    93    94    1
    31   129   126    1
    32    59    58   ar
    33    74    75    1
    34   126   127    1
    35    98    97    1
    36    98   100    1
    37    58    60   ar
    38   115   114    1
    39    97    94    1
    40    75    76   ar
    41    75    77   ar
    42    95    94    1
    43    68    69    1
    44    76    78   ar
    45   117   114    1
    46   117   118    1
    47    86    87    1
    48    77    79   ar
    49    78    80   ar
    50    87    88    1
    51   114   113    1
    52   127   128    2
    53   120   118   ar
    54   120   122   ar
    55    79    80   ar
    56   118   119   ar
    57    80    81    1
    58    26    25    1
    59   122   123   ar
    60    88    89    1
    61   119   121   ar
    62    92    90    1
    63    27    25    1
    64    25    24    1
    65    89    90    2
    66    90    91    1
    67   123   121   ar
    68   123   124    1
    69     1     2    1
    70    24    21    1
    71     4     3    2
    72     5     2    1
    73     5     6    1
    74     2     3    1
    75   104   103    2
    76    21    20    1
    77    21    22    1
    78     3    12   am
    79    34    33    1
    80   103   102    1
    81    20    14   am
    82    35    33    1
    83    33    32    1
    84     6     7    1
    85   107   109   ar
    86   107   106   ar
    87   105   102    1
    88   105   106    1
    89   102   101    1
    90    22    28   am
    91    22    23    2
    92    28    29    1
    93    14    15    2
    94    14    13    1
    95    12    13    1
    96   109   111   ar
    97     7     8    1
    98   106   108   ar
    99    13    16    1
   100    44    45   ar
   101    44    42   ar
   102    45    43   ar
   103    32    29    1
   104    29    30    1
   105    42    41   ar
   106     8     9    2
   107   111   112    1
   108   111   110   ar
   109    10     9    1
   110   108   110   ar
   111    43    41   ar
   112    41    40    1
   113    19    17    1
   114     9    11    1
   115    16    17    1
   116    40    37    1
   117    30    31    2
   118    17    18    1
   119    50    47    1
   120    50    51    1
   121    39    38    2
   122    47    46    1
   123    47    48    1
   124    38    46   am
   125    38    37    1
   126    46    52    1
   127    51    52    1
   128    37    36    1
   129    48    49    2
