@<TRIPOS>MOLECULE
tmp/1jp3A00.pdb
 136 126 0 0 0
SMALL
GASTEIGER

@<TRIPOS>ATOM
      1  N         40.8840   33.9770   60.8960 N.3    34  ALA34      -0.1245
      2  CA        41.7840   32.8360   60.6320 C.3    34  ALA34       0.1562
      3  C         41.3490   31.6160   61.4570 C.2    34  ALA34       0.2260
      4  O         41.4210   30.4740   60.9880 O.2    34  ALA34      -0.2867
      5  CB        43.2520   33.2260   60.9690 C.3    34  ALA34       0.0290
      6  N         38.5130   30.0330   59.7430 N.3    37  VAL37      -0.1245
      7  CA        38.9620   29.2850   58.5760 C.3    37  VAL37       0.1561
      8  C         39.3610   27.8690   59.0120 C.2    37  VAL37       0.2260
      9  O         38.9880   26.8990   58.3780 O.2    37  VAL37      -0.2867
     10  CB        40.2100   29.9410   57.8850 C.3    37  VAL37       0.0252
     11  CG1       40.7840   28.9770   56.8560 C.3    37  VAL37       0.0019
     12  CG2       39.8270   31.2990   57.2190 C.3    37  VAL37       0.0019
     13  N         38.2460   29.4800   49.4200 N.3    54  LEU54      -0.1245
     14  CA        38.0380   30.6390   50.2850 C.3    54  LEU54       0.1561
     15  C         38.5580   31.9310   49.6830 C.2    54  LEU54       0.2260
     16  O         39.6770   31.9830   49.1650 O.2    54  LEU54      -0.2867
     17  CB        38.7420   30.3920   51.6200 C.3    54  LEU54       0.0270
     18  CG        38.3440   29.1220   52.3360 C.3    54  LEU54       0.0019
     19  CD1       39.1060   29.0450   53.6680 C.3    54  LEU54       0.0001
     20  CD2       36.8400   29.1060   52.5550 C.3    54  LEU54       0.0001
     21  N         38.9250   35.9460   50.6760 N.3    56  ALA56      -0.1245
     22  CA        38.8740   36.9530   51.7200 C.3    56  ALA56       0.1562
     23  C         38.3780   38.2520   51.0730 C.2    56  ALA56       0.2260
     24  O         39.1000   38.8840   50.2860 O.2    56  ALA56      -0.2867
     25  CB        40.2610   37.1310   52.3350 C.3    56  ALA56       0.0290
     26  N         50.2030   40.5980   54.4730 N.3    59  GLU59      -0.1231
     27  CA        51.0920   40.3700   55.6010 C.3    59  GLU59       0.1699
     28  C         50.7320   39.0670   56.3090 C.2    59  GLU59       0.2592
     29  O         51.5270   38.1270   56.3060 O.2    59  GLU59      -0.2718
     30  CB        51.0430   41.5480   56.5800 C.3    59  GLU59       0.0402
     31  CG        52.1880   41.5580   57.5940 C.3    59  GLU59       0.1161
     32  CD        53.5610   41.5340   56.9320 C.2    59  GLU59       0.3649
     33  OE1       53.8340   40.5950   56.1490 O.co2  59  GLU59      -0.2457
     34  OE2       54.3720   42.4520   57.1950 O.co2  59  GLU59      -0.2457
     35  N         49.5370   38.9970   56.8990 N.am   60  LEU60      -0.1966
     36  CA        49.1180   37.7760   57.5920 C.3    60  LEU60       0.1728
     37  C         49.3420   36.5770   56.6780 C.2    60  LEU60       0.2616
     38  O         49.8710   35.5500   57.1030 O.2    60  LEU60      -0.2715
     39  CB        47.6360   37.8410   57.9930 C.3    60  LEU60       0.0311
     40  CG        47.0840   36.6020   58.7230 C.3    60  LEU60       0.0022
     41  CD1       47.7710   36.4630   60.0700 C.3    60  LEU60       0.0001
     42  CD2       45.5790   36.7160   58.9190 C.3    60  LEU60       0.0001
     43  N         48.9350   36.7190   55.4210 N.am   61  PHE61      -0.1974
     44  CA        49.0980   35.6590   54.4320 C.3    61  PHE61       0.1639
     45  C         50.5530   35.2130   54.4360 C.2    61  PHE61       0.2290
     46  O         50.8540   34.0340   54.6070 O.2    61  PHE61      -0.2864
     47  CB        48.7370   36.1650   53.0340 C.3    61  PHE61       0.0560
     48  CG        48.7060   35.0880   51.9970 C.ar   61  PHE61      -0.0200
     49  CD1       47.6850   34.1400   51.9950 C.ar   61  PHE61      -0.0042
     50  CD2       49.7200   34.9880   51.0510 C.ar   61  PHE61      -0.0042
     51  CE1       47.6740   33.1000   51.0670 C.ar   61  PHE61      -0.0003
     52  CE2       49.7200   33.9500   50.1170 C.ar   61  PHE61      -0.0003
     53  CZ        48.6890   33.0020   50.1280 C.ar   61  PHE61      -0.0000
     54  N         51.4000   33.8000   58.1670 N.3    64  ALA64      -0.1231
     55  CA        50.6980   32.5520   58.4310 C.3    64  ALA64       0.1694
     56  C         51.0820   31.3950   57.5240 C.2    64  ALA64       0.2591
     57  O         50.9440   30.2410   57.9140 O.2    64  ALA64      -0.2718
     58  CB        49.1860   32.7810   58.3570 C.3    64  ALA64       0.0304
     59  N         51.5700   31.6910   56.3210 N.am   65  LEU65      -0.1980
     60  CA        51.9270   30.6280   55.3930 C.3    65  LEU65       0.1596
     61  C         52.6270   29.4300   56.0180 C.2    65  LEU65       0.2287
     62  O         52.0530   28.3450   56.0580 O.2    65  LEU65      -0.2864
     63  CB        52.7900   31.1480   54.2410 C.3    65  LEU65       0.0297
     64  CG        52.7200   30.1620   53.0640 C.3    65  LEU65       0.0022
     65  CD1       51.2610   30.1020   52.5390 C.3    65  LEU65       0.0001
     66  CD2       53.6790   30.5820   51.9610 C.3    65  LEU65       0.0001
     67  N         50.7540   27.8390   59.2450 N.3    68  GLU68      -0.1245
     68  CA        49.4550   27.3310   58.8210 C.3    68  GLU68       0.1567
     69  C         49.5690   26.1280   57.9020 C.2    68  GLU68       0.2260
     70  O         48.8010   25.1770   58.0190 O.2    68  GLU68      -0.2867
     71  CB        48.6530   28.4190   58.1090 C.3    68  GLU68       0.0388
     72  CG        47.9960   29.3650   59.0470 C.3    68  GLU68       0.1160
     73  CD        47.3180   28.6260   60.1750 C.2    68  GLU68       0.3649
     74  OE1       47.9400   28.5040   61.2540 O.co2  68  GLU68      -0.2457
     75  OE2       46.1800   28.1470   59.9840 O.co2  68  GLU68      -0.2457
     76  N         47.8750   22.4020   58.1310 N.3    72  LEU72      -0.1245
     77  CA        47.0240   21.8470   57.0730 C.3    72  LEU72       0.1561
     78  C         47.6190   20.5060   56.6430 C.2    72  LEU72       0.2260
     79  O         46.8930   19.5430   56.4020 O.2    72  LEU72      -0.2867
     80  CB        46.9730   22.7730   55.8470 C.3    72  LEU72       0.0270
     81  CG        46.2120   24.0900   56.0400 C.3    72  LEU72       0.0019
     82  CD1       46.3940   24.9560   54.8070 C.3    72  LEU72       0.0001
     83  CD2       44.7270   23.7710   56.2920 C.3    72  LEU72       0.0001
     84  N         46.7240   21.8520   49.7130 N.3    79  LEU79      -0.1245
     85  CA        46.6110   23.3000   49.5430 C.3    79  LEU79       0.1561
     86  C         46.9440   23.8040   48.1320 C.2    79  LEU79       0.2260
     87  O         47.9400   23.4010   47.5240 O.2    79  LEU79      -0.2867
     88  CB        47.5450   23.9910   50.5530 C.3    79  LEU79       0.0270
     89  CG        47.6090   25.5280   50.4910 C.3    79  LEU79       0.0019
     90  CD1       46.2070   26.1180   50.8200 C.3    79  LEU79       0.0001
     91  CD2       48.6420   26.0420   51.4970 C.3    79  LEU79       0.0001
     92  N         54.0920   38.4160   42.3060 N.3    88  PHE88      -0.1241
     93  CA        54.5500   38.2860   43.6860 C.3    88  PHE88       0.1605
     94  C         56.0660   38.1430   43.5130 C.2    88  PHE88       0.2264
     95  O         56.5120   37.6760   42.4720 O.2    88  PHE88      -0.2867
     96  CB        53.9860   37.0060   44.3200 C.3    88  PHE88       0.0534
     97  CG        52.5610   37.1270   44.8230 C.ar   88  PHE88      -0.0203
     98  CD1       51.7650   38.2240   44.4850 C.ar   88  PHE88      -0.0042
     99  CD2       52.0300   36.1450   45.6670 C.ar   88  PHE88      -0.0042
    100  CE1       50.4600   38.3460   44.9900 C.ar   88  PHE88      -0.0003
    101  CE2       50.7280   36.2520   46.1770 C.ar   88  PHE88      -0.0003
    102  CZ        49.9440   37.3530   45.8410 C.ar   88  PHE88      -0.0000
    103  N         41.8970   22.4480   49.6100 N.3   111  LEU111     -0.1245
    104  CA        41.5860   23.8070   50.0680 C.3   111  LEU111      0.1561
    105  C         42.2420   24.7860   49.1100 C.2   111  LEU111      0.2260
    106  O         43.4770   24.8440   48.9990 O.2   111  LEU111     -0.2867
    107  CB        42.1740   24.0680   51.4780 C.3   111  LEU111      0.0270
    108  CG        42.1110   25.4900   52.0540 C.3   111  LEU111      0.0019
    109  CD1       40.6360   25.8680   52.2570 C.3   111  LEU111      0.0001
    110  CD2       42.8220   25.5550   53.4030 C.3   111  LEU111      0.0001
    111  N         42.9060   28.6390   48.2280 N.3   113  ILE113     -0.1231
    112  CA        42.8930   29.9470   48.8440 C.3   113  ILE113      0.1692
    113  C         43.1160   30.9520   47.7350 C.2   113  ILE113      0.2592
    114  O         44.0980   30.8850   47.0100 O.2   113  ILE113     -0.2718
    115  CB        44.0180   30.1480   49.8780 C.3   113  ILE113      0.0266
    116  CG1       43.9160   29.0980   50.9940 C.3   113  ILE113      0.0019
    117  CG2       43.9140   31.5740   50.4780 C.3   113  ILE113      0.0020
    118  CD1       42.6720   29.2130   51.8610 C.3   113  ILE113      0.0001
    119  N         42.1820   31.8910   47.6170 N.am  114  ALA114     -0.1966
    120  CA        42.3050   32.9290   46.6180 C.3   114  ALA114      0.1728
    121  C         43.3250   33.9830   47.0940 C.2   114  ALA114      0.2616
    122  O         43.2870   34.4520   48.2380 O.2   114  ALA114     -0.2715
    123  CB        40.9050   33.5960   46.3790 C.3   114  ALA114      0.0334
    124  N         44.2660   34.3350   46.2310 N.am  115  ALA115     -0.1963
    125  CA        45.2570   35.3630   46.5760 C.3   115  ALA115      0.1728
    126  C         45.3700   36.1980   45.3170 C.2   115  ALA115      0.2616
    127  O         45.7720   35.6830   44.2840 O.2   115  ALA115     -0.2715
    128  CB        46.6180   34.7180   46.8970 C.3   115  ALA115      0.0334
    129  N         45.0010   37.4690   45.4160 N.am  116  ASN116     -0.1972
    130  CA        45.0020   38.3820   44.2820 C.3   116  ASN116      0.1688
    131  C         44.1930   37.7580   43.1520 C.2   116  ASN116      0.2292
    132  O         44.6030   37.7370   42.0060 O.2   116  ASN116     -0.2864
    133  CB        46.4220   38.6540   43.7890 C.3   116  ASN116      0.1181
    134  CG        46.4600   39.7680   42.7840 C.2   116  ASN116      0.2629
    135  OD1       45.8090   40.7910   42.9840 O.2   116  ASN116     -0.2716
    136  ND2       47.2060   39.5890   41.6980 N.am  116  ASN116     -0.0877
@<TRIPOS>BOND
     1   136   134   am
     2   132   131    2
     3    92    93    1
     4    95    94    2
     5   134   135    2
     6   134   133    1
     7   131   130    1
     8    94    93    1
     9    93    96    1
    10   133   130    1
    11   130   129    1
    12   127   126    2
    13    96    97    1
    14    98    97   ar
    15    98   100   ar
    16    97    99   ar
    17   100   102   ar
    18   126   129   am
    19   126   125    1
    20    99   101   ar
    21   102   101   ar
    22   124   125    1
    23   124   121   am
    24   123   120    1
    25   125   128    1
    26   120   121    1
    27   120   119    1
    28   114   113    2
    29   121   122    2
    30    87    86    2
    31   119   113   am
    32   113   112    1
    33    86    85    1
    34   111   112    1
    35   112   115    1
    36   106   105    2
    37   105   104    1
    38    16    15    2
    39    13    14    1
    40    85    84    1
    41    85    88    1
    42   103   104    1
    43    15    14    1
    44   115   117    1
    45   115   116    1
    46   104   107    1
    47    52    53   ar
    48    52    50   ar
    49    53    51   ar
    50    14    17    1
    51    24    23    2
    52    89    88    1
    53    89    90    1
    54    89    91    1
    55    21    22    1
    56   116   118    1
    57    50    48   ar
    58    51    49   ar
    59    23    22    1
    60   107   108    1
    61    17    18    1
    62    22    25    1
    63    66    64    1
    64    49    48   ar
    65    48    47    1
    66   108   109    1
    67   108   110    1
    68    18    20    1
    69    18    19    1
    70    65    64    1
    71    47    44    1
    72    64    63    1
    73    63    60    1
    74    44    45    1
    75    44    43    1
    76    45    46    2
    77    26    27    1
    78    82    81    1
    79    60    61    1
    80    60    59    1
    81    43    37   am
    82    27    28    1
    83    27    30    1
    84    80    81    1
    85    80    77    1
    86    61    62    2
    87    81    83    1
    88    33    32   ar
    89    29    28    2
    90    28    35   am
    91    59    56   am
    92    79    78    2
    93    30    31    1
    94    78    77    1
    95    37    38    2
    96    37    36    1
    97    11    10    1
    98    35    36    1
    99    32    34   ar
   100    32    31    1
   101    77    76    1
   102    12    10    1
   103    56    57    2
   104    56    55    1
   105    36    39    1
   106    10     7    1
   107    69    70    2
   108    69    68    1
   109    39    40    1
   110    71    68    1
   111    71    72    1
   112    54    55    1
   113    58    55    1
   114     9     8    2
   115     7     8    1
   116     7     6    1
   117    40    42    1
   118    40    41    1
   119    68    67    1
   120    72    73    1
   121    75    73   ar
   122    73    74   ar
   123     2     1    1
   124     2     5    1
   125     2     3    1
   126     4     3    2
