@<TRIPOS>MOLECULE
tmp/1jp5B00.pdb
 206 205 0 0 0
SMALL
GASTEIGER

@<TRIPOS>ATOM
      1  N         21.2310   20.8070   10.3660 N.3    31  HIS31      -0.1241
      2  CA        22.0380   20.6420    9.1780 C.3    31  HIS31       0.1621
      3  C         21.6440   19.2700    8.6230 C.2    31  HIS31       0.2264
      4  O         21.2110   18.3770    9.3650 O.2    31  HIS31      -0.2867
      5  CB        23.5240   20.6910    9.5490 C.3    31  HIS31       0.0745
      6  CG        24.4510   20.6650    8.3720 C.ar   31  HIS31       0.0817
      7  ND1       24.7860   19.5030    7.7160 N.ar   31  HIS31      -0.2268
      8  CD2       25.1090   21.6610    7.7370 C.ar   31  HIS31       0.1154
      9  CE1       25.6150   19.7800    6.7250 C.ar   31  HIS31       0.1986
     10  NE2       25.8280   21.0840    6.7150 N.ar   31  HIS31      -0.2212
     11  N         23.2540   16.8590    7.9310 N.3    33  ASN33      -0.1240
     12  CA        23.9940   15.7380    8.4930 C.3    33  ASN33       0.1653
     13  C         23.3890   15.2630    9.8100 C.2    33  ASN33       0.2266
     14  O         23.9500   14.3950   10.4700 O.2    33  ASN33      -0.2867
     15  CB        25.4800   16.0870    8.6830 C.3    33  ASN33       0.1155
     16  CG        25.7130   17.2080    9.6840 C.2    33  ASN33       0.2627
     17  OD1       25.1460   17.2210   10.7770 O.2    33  ASN33      -0.2716
     18  ND2       26.5810   18.1460    9.3210 N.am   33  ASN33      -0.0877
     19  N         23.5350   22.7820   14.7660 N.3    37  TYR37      -0.1241
     20  CA        24.6230   23.6450   15.1820 C.3    37  TYR37       0.1605
     21  C         24.1820   24.9320   15.8640 C.2    37  TYR37       0.2264
     22  O         24.4120   26.0320   15.3580 O.2    37  TYR37      -0.2867
     23  CB        25.5210   23.9790   13.9920 C.3    37  TYR37       0.0534
     24  CG        26.1910   22.7750   13.3890 C.ar   37  TYR37      -0.0201
     25  CD1       25.6370   22.1160   12.2940 C.ar   37  TYR37      -0.0009
     26  CD2       27.3780   22.2840   13.9200 C.ar   37  TYR37      -0.0009
     27  CE1       26.2610   20.9850   11.7430 C.ar   37  TYR37       0.0417
     28  CE2       28.0040   21.1600   13.3790 C.ar   37  TYR37       0.0417
     29  CZ        27.4410   20.5170   12.2950 C.ar   37  TYR37       0.1957
     30  OH        28.0550   19.3930   11.7930 O.3    37  TYR37      -0.2866
     31  N         24.9390   27.4470   12.8020 N.3    96  GLY96      -0.1210
     32  CA        25.8790   27.1980   11.7280 C.3    96  GLY96       0.1956
     33  C         25.3530   26.0460   10.9080 C.2    96  GLY96       0.2613
     34  O         26.0940   25.4410   10.1330 O.2    96  GLY96      -0.2717
     35  N         24.0640   25.7550   11.0800 N.am   97  SER97      -0.1938
     36  CA        23.4050   24.6730   10.3610 C.3    97  SER97       0.2055
     37  C         23.0940   24.9600    8.8890 C.2    97  SER97       0.2643
     38  O         23.0610   24.0330    8.0720 O.2    97  SER97      -0.2714
     39  CB        22.1290   24.2620   11.0980 C.3    97  SER97       0.2130
     40  OG        22.4610   23.5210   12.2610 O.3    97  SER97      -0.2179
     41  N         22.8590   26.2260    8.5470 N.am   98  HIS98      -0.1959
     42  CA        22.5870   26.5920    7.1600 C.3    98  HIS98       0.1787
     43  C         23.2520   27.9050    6.7580 C.2    98  HIS98       0.2620
     44  O         23.1860   28.9160    7.4700 O.2    98  HIS98      -0.2715
     45  CB        21.0850   26.6630    6.8930 C.3    98  HIS98       0.0785
     46  CG        20.3850   25.3510    7.0780 C.ar   98  HIS98       0.0821
     47  ND1       19.6740   25.0420    8.2160 N.ar   98  HIS98      -0.2267
     48  CD2       20.3420   24.2490    6.2900 C.ar   98  HIS98       0.1154
     49  CE1       19.2230   23.8030    8.1250 C.ar   98  HIS98       0.1986
     50  NE2       19.6170   23.3010    6.9670 N.ar   98  HIS98      -0.2212
     51  N         23.9130   27.8690    5.6060 N.am   99  PHE99      -0.1974
     52  CA        24.6020   29.0350    5.0910 C.3    99  PHE99       0.1639
     53  C         23.5970   30.1150    4.7180 C.2    99  PHE99       0.2290
     54  O         22.5660   29.8420    4.1110 O.2    99  PHE99      -0.2864
     55  CB        25.4410   28.6800    3.8550 C.3    99  PHE99       0.0560
     56  CG        26.3080   29.8080    3.3980 C.ar   99  PHE99      -0.0200
     57  CD1       27.5460   30.0290    3.9970 C.ar   99  PHE99      -0.0042
     58  CD2       25.8400   30.7260    2.4730 C.ar   99  PHE99      -0.0042
     59  CE1       28.2960   31.1580    3.6880 C.ar   99  PHE99      -0.0003
     60  CE2       26.5840   31.8620    2.1540 C.ar   99  PHE99      -0.0003
     61  CZ        27.8110   32.0790    2.7640 C.ar   99  PHE99      -0.0000
     62  N         25.8740   31.2490    8.0860 N.3   101  PRO101     -0.2116
     63  CA        25.6400   31.1210    9.5280 C.3   101  PRO101      0.1372
     64  C         25.1870   32.4740   10.0640 C.2   101  PRO101      0.2244
     65  O         25.6070   33.5070    9.5480 O.2   101  PRO101     -0.2868
     66  CB        26.9970   30.6970   10.0640 C.3   101  PRO101      0.0268
     67  CG        27.9660   31.2490    9.0500 C.3   101  PRO101      0.0207
     68  CD        27.2770   30.9710    7.7440 C.3   101  PRO101      0.0892
     69  N         47.1700   25.4530    6.4340 N.3   142  THR142     -0.1203
     70  CA        46.4730   24.8530    5.2980 C.3   142  THR142      0.1994
     71  C         45.4880   23.7340    5.6460 C.2   142  THR142      0.2618
     72  O         44.7700   23.2400    4.7760 O.2   142  THR142     -0.2717
     73  CB        47.4820   24.3130    4.2700 C.3   142  THR142      0.1784
     74  OG1       48.3590   23.3790    4.9070 O.3   142  THR142     -0.2211
     75  CG2       48.3120   25.4550    3.6920 C.3   142  THR142      0.0376
     76  N         45.4530   23.3370    6.9140 N.am  143  ASP143     -0.1959
     77  CA        44.5470   22.2800    7.3630 C.3   143  ASP143      0.1840
     78  C         43.1080   22.7450    7.4100 C.2   143  ASP143      0.2622
     79  O         42.2280   22.1200    6.8280 O.2   143  ASP143     -0.2715
     80  CB        44.9490   21.7930    8.7490 C.3   143  ASP143      0.1450
     81  CG        45.9900   20.7180    8.6920 C.2   143  ASP143      0.3671
     82  OD1       46.8150   20.7620    7.7630 O.co2 143  ASP143     -0.2456
     83  OD2       45.9940   19.8370    9.5700 O.co2 143  ASP143     -0.2456
     84  N         42.8790   23.8410    8.1240 N.am  144  TYR144     -0.1960
     85  CA        41.5490   24.4180    8.2680 C.3   144  TYR144      0.1771
     86  C         41.3910   25.6510    7.4010 C.2   144  TYR144      0.2620
     87  O         42.3560   26.1630    6.8290 O.2   144  TYR144     -0.2715
     88  CB        41.3020   24.8150    9.7200 C.3   144  TYR144      0.0574
     89  CG        41.1510   23.6490   10.6540 C.ar  144  TYR144     -0.0198
     90  CD1       39.8880   23.1560   10.9810 C.ar  144  TYR144     -0.0009
     91  CD2       42.2680   23.0480   11.2300 C.ar  144  TYR144     -0.0009
     92  CE1       39.7350   22.1030   11.8700 C.ar  144  TYR144      0.0417
     93  CE2       42.1270   21.9880   12.1220 C.ar  144  TYR144      0.0417
     94  CZ        40.8540   21.5220   12.4420 C.ar  144  TYR144      0.1957
     95  OH        40.6880   20.5130   13.3670 O.3   144  TYR144     -0.2866
     96  N         40.1580   26.1260    7.3220 N.am  145  SER145     -0.1950
     97  CA        39.8430   27.3060    6.5470 C.3   145  SER145      0.1924
     98  C         39.8430   28.5090    7.4740 C.2   145  SER145      0.2314
     99  O         40.0940   28.3930    8.6820 O.2   145  SER145     -0.2863
    100  CB        38.4510   27.1870    5.9140 C.3   145  SER145      0.2116
    101  OG        38.3570   26.0210    5.1180 O.3   145  SER145     -0.2180
    102  N         37.5850   31.9690    8.4720 N.3   147  HIS147     -0.1241
    103  CA        36.3090   32.6900    8.3850 C.3   147  HIS147      0.1621
    104  C         36.4930   34.1490    8.7590 C.2   147  HIS147      0.2264
    105  O         37.4880   34.5400    9.3730 O.2   147  HIS147     -0.2867
    106  CB        35.2990   32.0150    9.3290 C.3   147  HIS147      0.0745
    107  CG        35.1510   30.5390    9.0990 C.ar  147  HIS147      0.0817
    108  ND1       34.2290   30.0090    8.2210 N.ar  147  HIS147     -0.2268
    109  CD2       35.8610   29.4860    9.5760 C.ar  147  HIS147      0.1154
    110  CE1       34.3790   28.6980    8.1630 C.ar  147  HIS147      0.1986
    111  NE2       35.3630   28.3540    8.9730 N.ar  147  HIS147     -0.2212
    112  N         28.3030   37.1000    9.0560 N.3   159  TYR159     -0.1241
    113  CA        29.2870   36.2510    8.3990 C.3   159  TYR159      0.1605
    114  C         29.7210   36.9250    7.0960 C.2   159  TYR159      0.2264
    115  O         28.8970   37.2430    6.2500 O.2   159  TYR159     -0.2867
    116  CB        28.6770   34.8850    8.0870 C.3   159  TYR159      0.0534
    117  CG        29.6900   33.8420    7.6740 C.ar  159  TYR159     -0.0201
    118  CD1       30.6310   33.3620    8.5860 C.ar  159  TYR159     -0.0009
    119  CD2       29.7220   33.3450    6.3720 C.ar  159  TYR159     -0.0009
    120  CE1       31.5820   32.4110    8.2010 C.ar  159  TYR159      0.0417
    121  CE2       30.6630   32.4040    5.9820 C.ar  159  TYR159      0.0417
    122  CZ        31.5880   31.9420    6.8970 C.ar  159  TYR159      0.1957
    123  OH        32.5360   31.0300    6.5100 O.3   159  TYR159     -0.2866
    124  N         34.3690   32.8490    3.9900 N.3   162  TRP162     -0.1241
    125  CA        35.5510   32.0940    4.3630 C.3   162  TRP162      0.1605
    126  C         36.4070   31.8660    3.1340 C.2   162  TRP162      0.2264
    127  O         36.0330   32.2360    2.0210 O.2   162  TRP162     -0.2867
    128  CB        35.1590   30.7510    4.9790 C.3   162  TRP162      0.0550
    129  CG        35.0690   29.5870    4.0180 C.ar  162  TRP162      0.0003
    130  CD1       36.1070   28.8160    3.5490 C.ar  162  TRP162      0.0946
    131  CD2       33.8770   29.0430    3.4340 C.ar  162  TRP162      0.0152
    132  NE1       35.6310   27.8320    2.7170 N.ar  162  TRP162     -0.2442
    133  CE2       34.2690   27.9450    2.6290 C.ar  162  TRP162      0.0810
    134  CE3       32.5170   29.3730    3.5160 C.ar  162  TRP162      0.0012
    135  CZ2       33.3470   27.1750    1.9100 C.ar  162  TRP162      0.0191
    136  CZ3       31.5960   28.6010    2.7980 C.ar  162  TRP162      0.0001
    137  CH2       32.0210   27.5160    2.0050 C.ar  162  TRP162      0.0015
    138  N         39.2130   28.7810    1.4920 N.3   164  ASN164     -0.1225
    139  CA        39.8550   27.4720    1.5570 C.3   164  ASN164      0.1785
    140  C         41.3390   27.7950    1.5980 C.2   164  ASN164      0.2598
    141  O         41.8760   28.3810    0.6480 O.2   164  ASN164     -0.2718
    142  CB        39.5330   26.6710    0.2890 C.3   164  ASN164      0.1169
    143  CG        40.0720   25.2550    0.3340 C.2   164  ASN164      0.2627
    144  OD1       41.2720   25.0350    0.4300 O.2   164  ASN164     -0.2716
    145  ND2       39.1760   24.2850    0.2600 N.am  164  ASN164     -0.0877
    146  N         41.9950   27.4260    2.6960 N.am  165  THR165     -0.1939
    147  CA        43.4170   27.7020    2.8580 C.3   165  THR165      0.2028
    148  C         44.2830   26.7080    2.0840 C.2   165  THR165      0.2642
    149  O         45.5150   26.8160    2.0780 O.2   165  THR165     -0.2714
    150  CB        43.8340   27.6620    4.3310 C.3   165  THR165      0.1808
    151  OG1       43.8560   26.3050    4.7780 O.3   165  THR165     -0.2208
    152  CG2       42.8580   28.4520    5.1780 C.3   165  THR165      0.0379
    153  N         43.6310   25.7540    1.4260 N.am  166  GLU166     -0.1976
    154  CA        44.3300   24.7540    0.6290 C.3   166  GLU166      0.1602
    155  C         44.1890   25.0100   -0.8810 C.2   166  GLU166      0.2287
    156  O         45.1000   24.7050   -1.6520 O.2   166  GLU166     -0.2864
    157  CB        43.7850   23.3860    0.9650 C.3   166  GLU166      0.0415
    158  CG        44.7140   22.2650    0.6420 C.3   166  GLU166      0.1163
    159  CD        44.1190   20.9320    1.0490 C.2   166  GLU166      0.3649
    160  OE1       43.6960   20.8100    2.2230 O.co2 166  GLU166     -0.2457
    161  OE2       44.0730   20.0130    0.2020 O.co2 166  GLU166     -0.2457
    162  N         37.2040   27.5190   12.5480 N.3   211  ASP211     -0.1239
    163  CA        36.2010   26.5780   13.0200 C.3   211  ASP211      0.1674
    164  C         36.8620   25.2870   13.4700 C.2   211  ASP211      0.2266
    165  O         38.0680   25.1100   13.3110 O.2   211  ASP211     -0.2867
    166  CB        35.2070   26.2680   11.9030 C.3   211  ASP211      0.1410
    167  CG        35.8710   25.6100   10.7060 C.2   211  ASP211      0.3668
    168  OD1       35.1590   25.2100    9.7630 O.co2 211  ASP211     -0.2456
    169  OD2       37.1130   25.4940   10.7050 O.co2 211  ASP211     -0.2456
    170  N         34.7100   22.2360   13.0960 N.3   213  HIS213     -0.1226
    171  CA        33.5460   21.4370   12.7130 C.3   213  HIS213      0.1752
    172  C         33.6520   19.9190   12.8670 C.2   213  HIS213      0.2596
    173  O         32.6750   19.2630   13.2500 O.2   213  HIS213     -0.2718
    174  CB        33.1280   21.7850   11.2720 C.3   213  HIS213      0.0759
    175  CG        34.1840   21.5220   10.2440 C.ar  213  HIS213      0.0818
    176  ND1       35.4670   22.0180   10.3510 N.ar  213  HIS213     -0.2268
    177  CD2       34.1360   20.8580    9.0650 C.ar  213  HIS213      0.1154
    178  CE1       36.1610   21.6720    9.2810 C.ar  213  HIS213      0.1986
    179  NE2       35.3760   20.9680    8.4830 N.ar  213  HIS213     -0.2212
    180  N         34.8160   19.3530   12.5640 N.am  214  ASP214     -0.1974
    181  CA        34.9930   17.9080   12.6950 C.3   214  ASP214      0.1709
    182  C         34.7380   17.5110   14.1460 C.2   214  ASP214      0.2293
    183  O         34.5110   16.3380   14.4620 O.2   214  ASP214     -0.2864
    184  CB        36.4070   17.4990   12.2660 C.3   214  ASP214      0.1436
    185  CG        37.4030   18.6450   12.3660 C.2   214  ASP214      0.3671
    186  OD1       37.5360   19.2440   13.4590 O.co2 214  ASP214     -0.2456
    187  OD2       38.0550   18.9440   11.3410 O.co2 214  ASP214     -0.2456
    188  N         31.7430   25.3630   15.8920 N.3   218  ILE218     -0.1231
    189  CA        31.9210   26.3440   14.8170 C.3   218  ILE218      0.1692
    190  C         32.4100   27.6500   15.4170 C.2   218  ILE218      0.2592
    191  O         31.7790   28.1920   16.3170 O.2   218  ILE218     -0.2718
    192  CB        30.6030   26.6520   14.0670 C.3   218  ILE218      0.0266
    193  CG1       29.9520   25.3600   13.5600 C.3   218  ILE218      0.0019
    194  CG2       30.8900   27.6000   12.9150 C.3   218  ILE218      0.0020
    195  CD1       30.8210   24.5400   12.6270 C.3   218  ILE218      0.0001
    196  N         33.5290   28.1590   14.9170 N.am  219  PHE219     -0.1976
    197  CA        34.0840   29.4150   15.4190 C.3   219  PHE219      0.1639
    198  C         34.5780   29.2540   16.8380 C.2   219  PHE219      0.2290
    199  O         34.0580   29.8790   17.7560 O.2   219  PHE219     -0.2864
    200  CB        33.0360   30.5470   15.3890 C.3   219  PHE219      0.0560
    201  CG        32.4920   30.8480   14.0120 C.ar  219  PHE219     -0.0200
    202  CD1       33.1740   30.4380   12.8590 C.ar  219  PHE219     -0.0042
    203  CD2       31.2980   31.5460   13.8660 C.ar  219  PHE219     -0.0042
    204  CE1       32.6710   30.7180   11.5950 C.ar  219  PHE219     -0.0003
    205  CE2       30.7880   31.8320   12.6070 C.ar  219  PHE219     -0.0003
    206  CZ        31.4720   31.4190   11.4700 C.ar  219  PHE219     -0.0000
@<TRIPOS>BOND
     1   156   155    2
     2   155   154    1
     3   161   159   ar
     4   145   143   am
     5   142   143    1
     6   142   139    1
     7   143   144    2
     8   154   157    1
     9   154   153    1
    10   158   157    1
    11   158   159    1
    12   141   140    2
    13   159   160   ar
    14   153   148   am
    15   138   139    1
    16   139   140    1
    17   140   146   am
    18   135   137   ar
    19   135   133   ar
    20   137   136   ar
    21   127   126    2
    22   149   148    2
    23   148   147    1
    24    60    58   ar
    25    60    61   ar
    26    58    56   ar
    27   133   132   ar
    28   133   131   ar
    29   146   147    1
    30   132   130   ar
    31    61    59   ar
    32   136   134   ar
    33   147   150    1
    34   126   125    1
    35    56    55    1
    36    56    57   ar
    37   131   134   ar
    38   131   129   ar
    39   130   129   ar
    40    59    57   ar
    41    75    73    1
    42    55    52    1
    43   124   125    1
    44   129   128    1
    45    54    53    2
    46    73    74    1
    47    73    70    1
    48   150   151    1
    49   150   152    1
    50   125   128    1
    51    53    52    1
    52    72    71    2
    53    52    51    1
    54   101   100    1
    55    70    71    1
    56    70    69    1
    57    51    43   am
    58    71    76   am
    59   100    97    1
    60   121   119   ar
    61   121   122   ar
    62   115   114    2
    63    48    50   ar
    64    48    46   ar
    65   119   117   ar
    66   123   122    1
    67    97    96    1
    68    97    98    1
    69    10     9   ar
    70    10     8   ar
    71     9     7   ar
    72    43    42    1
    73    43    44    2
    74    79    78    2
    75    87    86    2
    76    45    46    1
    77    45    42    1
    78   122   120   ar
    79    76    77    1
    80    50    49   ar
    81    46    47   ar
    82   114   113    1
    83    42    41    1
    84    96    86   am
    85    77    78    1
    86    77    80    1
    87    86    85    1
    88    78    84   am
    89    98    99    2
    90   117   116    1
    91   117   118   ar
    92     7     6   ar
    93     8     6   ar
    94    68    62    1
    95    68    67    1
    96    82    81   ar
    97    11    12    1
    98    38    37    2
    99    62    63    1
   100   116   113    1
   101    84    85    1
   102    49    47   ar
   103   110   108   ar
   104   110   111   ar
   105   120   118   ar
   106   108   107   ar
   107    85    88    1
   108     6     5    1
   109   103   102    1
   110   103   104    1
   111   103   106    1
   112   113   112    1
   113   179   177   ar
   114   179   178   ar
   115    12    15    1
   116    12    13    1
   117    41    37   am
   118     3     2    1
   119     3     4    2
   120    15    16    1
   121    81    80    1
   122    81    83   ar
   123   104   105    2
   124    37    36    1
   125   111   109   ar
   126    67    66    1
   127   177   175   ar
   128   107   106    1
   129   107   109   ar
   130     2     5    1
   131     2     1    1
   132   178   176   ar
   133    18    16   am
   134    63    64    1
   135    63    66    1
   136    65    64    2
   137    16    17    2
   138    88    89    1
   139   168   167   ar
   140    13    14    2
   141    34    33    2
   142   175   176   ar
   143   175   174    1
   144    36    35    1
   145    36    39    1
   146    89    90   ar
   147    89    91   ar
   148   169   167   ar
   149   167   166    1
   150    33    35   am
   151    33    32    1
   152    90    92   ar
   153    39    40    1
   154    91    93   ar
   155   174   171    1
   156   187   185   ar
   157   206   204   ar
   158   206   205   ar
   159   204   202   ar
   160    32    31    1
   161    27    25   ar
   162    27    29   ar
   163    30    29    1
   164    92    94   ar
   165   166   163    1
   166    93    94   ar
   167   184   185    1
   168   184   181    1
   169    25    24   ar
   170    29    28   ar
   171   185   186   ar
   172    94    95    1
   173   162   163    1
   174   180   181    1
   175   180   172   am
   176   205   203   ar
   177   195   193    1
   178   181   182    1
   179   171   172    1
   180   171   170    1
   181   202   201   ar
   182   172   173    2
   183   194   192    1
   184   163   164    1
   185   165   164    2
   186    28    26   ar
   187    24    26   ar
   188    24    23    1
   189   193   192    1
   190   203   201   ar
   191    23    20    1
   192   201   200    1
   193   192   189    1
   194   182   183    2
   195    19    20    1
   196   189   190    1
   197   189   188    1
   198   196   190   am
   199   196   197    1
   200    20    21    1
   201    22    21    2
   202   200   197    1
   203   190   191    2
   204   197   198    1
   205   198   199    2
