@<TRIPOS>MOLECULE
tmp/1jpaB00.pdb
 90 83 0 0 0
SMALL
GASTEIGER

@<TRIPOS>ATOM
      1  N         14.3070  -28.8640   42.6230 N.3    34  ILE34      -0.1245
      2  CA        15.4640  -27.9830   42.5480 C.3    34  ILE34       0.1561
      3  C         15.0790  -26.5510   42.8390 C.2    34  ILE34       0.2260
      4  O         15.9380  -25.6960   43.0460 O.2    34  ILE34      -0.2867
      5  CB        16.1370  -28.0510   41.1610 C.3    34  ILE34       0.0252
      6  CG1       15.1020  -27.8050   40.0560 C.3    34  ILE34       0.0019
      7  CG2       16.8210  -29.3860   40.9880 C.3    34  ILE34       0.0019
      8  CD1       15.6420  -28.0080   38.6320 C.3    34  ILE34       0.0001
      9  N          9.7070  -26.7310   41.0650 N.3    42  VAL42      -0.1245
     10  CA        10.4990  -26.8730   39.8550 C.3    42  VAL42       0.1561
     11  C         11.4380  -28.0310   40.1400 C.2    42  VAL42       0.2260
     12  O         12.1110  -28.0410   41.1700 O.2    42  VAL42      -0.2867
     13  CB        11.3180  -25.5930   39.5560 C.3    42  VAL42       0.0252
     14  CG1       12.0800  -25.7530   38.2660 C.3    42  VAL42       0.0019
     15  CG2       10.3870  -24.3900   39.4710 C.3    42  VAL42       0.0019
     16  N         13.9170  -29.7900   32.6300 N.3    54  ALA54      -0.1245
     17  CA        13.4340  -29.0860   33.8100 C.3    54  ALA54       0.1562
     18  C         11.9320  -29.3580   33.7770 C.2    54  ALA54       0.2260
     19  O         11.3350  -29.3590   32.7020 O.2    54  ALA54      -0.2867
     20  CB        13.7010  -27.5880   33.6810 C.3    54  ALA54       0.0290
     21  N          8.2250  -28.3090   35.7520 N.3    56  LYS56      -0.1245
     22  CA         7.5300  -27.4680   36.7110 C.3    56  LYS56       0.1561
     23  C          6.1590  -28.0970   36.9050 C.2    56  LYS56       0.2260
     24  O          5.4100  -28.2610   35.9550 O.2    56  LYS56      -0.2867
     25  CB         7.4010  -26.0420   36.1740 C.3    56  LYS56       0.0271
     26  CG         8.7100  -25.4860   35.6280 C.3    56  LYS56       0.0035
     27  CD         8.8910  -24.0060   35.9640 C.3    56  LYS56       0.0206
     28  CE         7.8150  -23.1340   35.3490 C.3    56  LYS56       0.1093
     29  NZ         8.0400  -21.6840   35.6500 N.3    56  LYS56      -0.1314
     30  N         14.5700  -19.9420   26.0890 N.3    86  ILE86      -0.1245
     31  CA        14.2960  -21.2750   26.6420 C.3    86  ILE86       0.1561
     32  C         13.3650  -22.1310   25.7730 C.2    86  ILE86       0.2260
     33  O         12.2570  -21.7040   25.4280 O.2    86  ILE86      -0.2867
     34  CB        13.6780  -21.1730   28.0600 C.3    86  ILE86       0.0252
     35  CG1       14.6650  -20.4950   29.0010 C.3    86  ILE86       0.0019
     36  CG2       13.3540  -22.5620   28.5910 C.3    86  ILE86       0.0019
     37  CD1       16.0190  -21.1620   29.0060 C.3    86  ILE86       0.0001
     38  N         10.8090  -28.2970   30.0200 N.3   101  THR101     -0.1203
     39  CA        11.7000  -27.4290   29.2490 C.3   101  THR101      0.1994
     40  C         13.1270  -27.9730   29.2420 C.2   101  THR101      0.2618
     41  O         13.4470  -28.8830   30.0010 O.2   101  THR101     -0.2717
     42  CB        11.7180  -26.0080   29.8470 C.3   101  THR101      0.1784
     43  OG1       12.0760  -26.0780   31.2340 O.3   101  THR101     -0.2211
     44  CG2       10.3540  -25.3490   29.7170 C.3   101  THR101      0.0376
     45  N         13.9760  -27.4370   28.3720 N.am  102  GLU102     -0.1965
     46  CA        15.3480  -27.9140   28.3180 C.3   102  GLU102      0.1733
     47  C         16.0130  -27.6780   29.6640 C.2   102  GLU102      0.2616
     48  O         15.7200  -26.6980   30.3510 O.2   102  GLU102     -0.2715
     49  CB        16.1450  -27.2110   27.2110 C.3   102  GLU102      0.0429
     50  CG        16.1460  -25.7040   27.3080 C.3   102  GLU102      0.1163
     51  CD        16.9790  -25.0450   26.2180 C.2   102  GLU102      0.3649
     52  OE1       16.5920  -23.9490   25.7850 O.co2 102  GLU102     -0.2457
     53  OE2       18.0150  -25.6080   25.8110 O.co2 102  GLU102     -0.2457
     54  N         16.8960  -28.5900   30.0510 N.am  103  PHE103     -0.1960
     55  CA        17.5840  -28.4650   31.3250 C.3   103  PHE103      0.1771
     56  C         18.7620  -27.5030   31.1910 C.2   103  PHE103      0.2619
     57  O         19.5540  -27.6210   30.2610 O.2   103  PHE103     -0.2715
     58  CB        18.0720  -29.8400   31.7880 C.3   103  PHE103      0.0574
     59  CG        18.6520  -29.8350   33.1670 C.ar  103  PHE103     -0.0200
     60  CD1       17.8830  -29.4430   34.2560 C.ar  103  PHE103     -0.0042
     61  CD2       19.9800  -30.1830   33.3750 C.ar  103  PHE103     -0.0042
     62  CE1       18.4280  -29.3920   35.5290 C.ar  103  PHE103     -0.0003
     63  CE2       20.5340  -30.1360   34.6440 C.ar  103  PHE103     -0.0003
     64  CZ        19.7600  -29.7390   35.7250 C.ar  103  PHE103     -0.0000
     65  N         18.8750  -26.5450   32.1060 N.am  104  MET104     -0.1977
     66  CA        19.9770  -25.5710   32.0730 C.3   104  MET104      0.1605
     67  C         20.8040  -25.8250   33.3360 C.2   104  MET104      0.2287
     68  O         20.4630  -25.3680   34.4270 O.2   104  MET104     -0.2864
     69  CB        19.4140  -24.1460   32.0630 C.3   104  MET104      0.0413
     70  CG        18.4740  -23.8670   30.9110 C.3   104  MET104      0.0598
     71  SD        19.3590  -23.9530   29.3430 S.3   104  MET104     -0.1393
     72  CE        19.9800  -22.3070   29.2250 C.3   104  MET104      0.0692
     73  N         21.5690  -23.1600   36.0440 N.3   107  GLY107     -0.1210
     74  CA        20.4800  -22.4070   36.6300 C.3   107  GLY107      0.1956
     75  C         20.4000  -20.9410   36.2610 C.2   107  GLY107      0.2612
     76  O         20.7620  -20.5450   35.1480 O.2   107  GLY107     -0.2717
     77  N         19.9210  -20.1400   37.2080 N.am  108  SER108     -0.1952
     78  CA        19.7530  -18.7010   37.0100 C.3   108  SER108      0.1924
     79  C         21.0520  -17.9110   36.9640 C.2   108  SER108      0.2314
     80  O         21.9350  -18.0820   37.8070 O.2   108  SER108     -0.2863
     81  CB        18.8400  -18.1430   38.0900 C.3   108  SER108      0.2116
     82  OG        17.5420  -18.7070   37.9520 O.3   108  SER108     -0.2180
     83  N         18.5690  -18.0650   32.0940 N.3   155  LEU155     -0.1245
     84  CA        19.1150  -19.3680   32.4990 C.3   155  LEU155      0.1561
     85  C         20.4280  -19.6310   31.7750 C.2   155  LEU155      0.2260
     86  O         20.6340  -19.1540   30.6570 O.2   155  LEU155     -0.2867
     87  CB        18.1230  -20.4890   32.2000 C.3   155  LEU155      0.0270
     88  CG        16.7980  -20.3260   32.9710 C.3   155  LEU155      0.0019
     89  CD1       15.7630  -21.3530   32.5190 C.3   155  LEU155      0.0001
     90  CD2       17.0900  -20.4740   34.4520 C.3   155  LEU155      0.0001
@<TRIPOS>BOND
     1    33    32    2
     2    32    31    1
     3    52    51   ar
     4    53    51   ar
     5    30    31    1
     6    51    50    1
     7    31    34    1
     8    49    50    1
     9    49    46    1
    10    34    36    1
    11    34    35    1
    12    46    45    1
    13    46    47    1
    14    45    40   am
    15    35    37    1
    16    72    71    1
    17    40    39    1
    18    40    41    2
    19    39    42    1
    20    39    38    1
    21    71    70    1
    22    47    54   am
    23    47    48    2
    24    44    42    1
    25    42    43    1
    26    54    55    1
    27    57    56    2
    28    86    85    2
    29    70    69    1
    30    56    55    1
    31    56    65   am
    32    55    58    1
    33    85    84    1
    34    58    59    1
    35    69    66    1
    36    66    65    1
    37    66    67    1
    38    83    84    1
    39    87    84    1
    40    87    88    1
    41    89    88    1
    42    16    17    1
    43    19    18    2
    44    88    90    1
    45    59    61   ar
    46    59    60   ar
    47    67    68    2
    48    61    63   ar
    49    20    17    1
    50    18    17    1
    51    60    62   ar
    52    63    64   ar
    53    76    75    2
    54    28    29    1
    55    28    27    1
    56    62    64   ar
    57    26    27    1
    58    26    25    1
    59    21    22    1
    60    24    23    2
    61    73    74    1
    62    25    22    1
    63    75    74    1
    64    75    77   am
    65    22    23    1
    66    79    78    1
    67    79    80    2
    68    78    77    1
    69    78    81    1
    70    82    81    1
    71    14    13    1
    72     8     6    1
    73    15    13    1
    74    13    10    1
    75    10    11    1
    76    10     9    1
    77     6     5    1
    78    11    12    2
    79     7     5    1
    80     5     2    1
    81     2     1    1
    82     2     3    1
    83     3     4    2
