@<TRIPOS>MOLECULE
tmp/1jpcA01.pdb
 90 86 0 0 0
SMALL
GASTEIGER

@<TRIPOS>ATOM
      1  N         70.3910   41.6190    6.6480 N.3    57  GLN57      -0.1245
      2  CA        71.6760   41.5550    5.9670 C.3    57  GLN57       0.1566
      3  C         71.7330   40.6380    4.7740 C.2    57  GLN57       0.2260
      4  O         70.9200   39.7180    4.6430 O.2    57  GLN57      -0.2867
      5  CB        72.7550   41.1540    6.9600 C.3    57  GLN57       0.0367
      6  CG        72.7650   42.0030    8.1930 C.3    57  GLN57       0.0905
      7  CD        73.8200   41.5710    9.1700 C.2    57  GLN57       0.2608
      8  OE1       74.2470   40.4140    9.1940 O.2    57  GLN57      -0.2717
      9  NE2       74.2560   42.5030    9.9900 N.am   57  GLN57      -0.0878
     10  N         73.7990   38.3740    4.2790 N.3    59  ASP59      -0.1239
     11  CA        74.2230   37.0250    4.6590 C.3    59  ASP59       0.1674
     12  C         73.0280   36.2570    5.2500 C.2    59  ASP59       0.2266
     13  O         73.1890   35.1850    5.8440 O.2    59  ASP59      -0.2867
     14  CB        75.4150   37.0530    5.6380 C.3    59  ASP59       0.1410
     15  CG        75.0670   37.6340    7.0020 C.2    59  ASP59       0.3668
     16  OD1       74.0840   38.3960    7.1110 O.co2  59  ASP59      -0.2456
     17  OD2       75.7950   37.3370    7.9750 O.co2  59  ASP59      -0.2456
     18  N         71.0990   37.2640    7.7140 N.3    61  ASN61      -0.1240
     19  CA        70.9230   37.4850    9.1440 C.3    61  ASN61       0.1653
     20  C         70.1180   38.7490    9.4550 C.2    61  ASN61       0.2266
     21  O         70.3730   39.8210    8.9000 O.2    61  ASN61      -0.2867
     22  CB        72.2910   37.5460    9.8360 C.3    61  ASN61       0.1155
     23  CG        72.2370   37.0990   11.2890 C.2    61  ASN61       0.2627
     24  OD1       71.2520   36.5080   11.7360 O.2    61  ASN61      -0.2716
     25  ND2       73.3070   37.3640   12.0300 N.am   61  ASN61      -0.0877
     26  N         69.3620   41.3510   12.1200 N.3    63  VAL63      -0.1245
     27  CA        69.9950   41.8420   13.3460 C.3    63  VAL63       0.1561
     28  C         69.5010   43.2030   13.8660 C.2    63  VAL63       0.2260
     29  O         69.3410   44.1490   13.0900 O.2    63  VAL63      -0.2867
     30  CB        71.5380   41.9630   13.1340 C.3    63  VAL63       0.0252
     31  CG1       72.2470   42.2320   14.4560 C.3    63  VAL63       0.0019
     32  CG2       72.0970   40.7110   12.4590 C.3    63  VAL63       0.0019
     33  N         70.5040   46.3830   15.8460 N.3    65  TYR65      -0.1241
     34  CA        71.7230   47.0840   16.2550 C.3    65  TYR65       0.1605
     35  C         71.4630   48.3400   17.0750 C.2    65  TYR65       0.2264
     36  O         70.4950   49.0540   16.8190 O.2    65  TYR65      -0.2867
     37  CB        72.5210   47.5130   15.0210 C.3    65  TYR65       0.0534
     38  CG        73.2490   46.4070   14.3080 C.ar   65  TYR65      -0.0201
     39  CD1       74.3380   45.7700   14.9010 C.ar   65  TYR65      -0.0009
     40  CD2       72.8630   46.0070   13.0290 C.ar   65  TYR65      -0.0009
     41  CE1       75.0250   44.7590   14.2410 C.ar   65  TYR65       0.0417
     42  CE2       73.5440   44.9960   12.3570 C.ar   65  TYR65       0.0417
     43  CZ        74.6240   44.3760   12.9700 C.ar   65  TYR65       0.1957
     44  OH        75.2970   43.3680   12.3210 O.3    65  TYR65      -0.2866
     45  N         75.3730   44.2730   18.1230 N.3    71  PRO71      -0.2102
     46  CA        74.1540   43.4650   17.9580 C.3    71  PRO71       0.1504
     47  C         73.4510   43.1290   19.2770 C.2    71  PRO71       0.2576
     48  O         74.0040   42.4490   20.1400 O.2    71  PRO71      -0.2718
     49  CB        74.6710   42.2070   17.2550 C.3    71  PRO71       0.0282
     50  CG        76.0920   42.1100   17.7200 C.3    71  PRO71       0.0208
     51  CD        76.5510   43.5430   17.6320 C.3    71  PRO71       0.0893
     52  N         72.2240   43.6180   19.4130 N.am   72  ILE72      -0.1966
     53  CA        71.3850   43.4150   20.5890 C.3    72  ILE72       0.1727
     54  C         70.6270   42.0840   20.4920 C.2    72  ILE72       0.2616
     55  O         70.3410   41.4440   21.5050 O.2    72  ILE72      -0.2715
     56  CB        70.3460   44.5720   20.7110 C.3    72  ILE72       0.0290
     57  CG1       71.0600   45.9250   20.7920 C.3    72  ILE72       0.0022
     58  CG2       69.4330   44.3640   21.9030 C.3    72  ILE72       0.0023
     59  CD1       72.0410   46.0530   21.9460 C.3    72  ILE72       0.0001
     60  N         70.2800   41.6870   19.2710 N.am   73  TRP73      -0.1960
     61  CA        69.5550   40.4480   19.0160 C.3    73  TRP73       0.1771
     62  C         69.7850   40.0720   17.5610 C.2    73  TRP73       0.2619
     63  O         70.0330   40.9440   16.7250 O.2    73  TRP73      -0.2715
     64  CB        68.0530   40.6600   19.2680 C.3    73  TRP73       0.0590
     65  CG        67.1720   39.4690   18.9340 C.ar   73  TRP73       0.0006
     66  CD1       66.7870   38.4690   19.7820 C.ar   73  TRP73       0.0946
     67  CD2       66.5770   39.1670   17.6620 C.ar   73  TRP73       0.0152
     68  NE1       65.9970   37.5630   19.1190 N.ar   73  TRP73      -0.2442
     69  CE2       65.8500   37.9620   17.8180 C.ar   73  TRP73       0.0810
     70  CE3       66.5910   39.7940   16.4050 C.ar   73  TRP73       0.0012
     71  CZ2       65.1440   37.3680   16.7660 C.ar   73  TRP73       0.0191
     72  CZ3       65.8920   39.2040   15.3570 C.ar   73  TRP73       0.0001
     73  CH2       65.1770   38.0000   15.5450 C.ar   73  TRP73       0.0015
     74  N         69.7440   38.7820   17.2550 N.am   74  ALA74      -0.1977
     75  CA        69.9250   38.3300   15.8810 C.3    74  ALA74       0.1597
     76  C         69.1640   37.0370   15.6940 C.2    74  ALA74       0.2287
     77  O         68.8610   36.3530   16.6710 O.2    74  ALA74      -0.2864
     78  CB        71.3910   38.1280   15.5600 C.3    74  ALA74       0.0319
     79  N         70.3220   34.6720   13.9290 N.3    76  ASN76      -0.1240
     80  CA        71.3950   33.6670   13.8580 C.3    76  ASN76       0.1653
     81  C         71.1760   32.7580   12.6540 C.2    76  ASN76       0.2266
     82  O         71.3450   31.5360   12.7240 O.2    76  ASN76      -0.2867
     83  CB        71.4850   32.8360   15.1480 C.3    76  ASN76       0.1155
     84  CG        71.7560   33.6850   16.3810 C.2    76  ASN76       0.2627
     85  OD1       72.6480   34.5360   16.3850 O.2    76  ASN76      -0.2716
     86  ND2       70.9840   33.4560   17.4370 N.am   76  ASN76      -0.0877
     87  N         72.5750   33.8110    9.7170 N.3    78  GLY78      -0.1225
     88  CA        73.6030   34.2970    8.8210 C.3    78  GLY78       0.1811
     89  C         74.2540   33.1110    8.1400 C.2    78  GLY78       0.2280
     90  O         74.3450   32.0210    8.7210 O.2    78  GLY78      -0.2866
@<TRIPOS>BOND
     1    10    11    1
     2     4     3    2
     3    11    12    1
     4    11    14    1
     5     3     2    1
     6    12    13    2
     7    14    15    1
     8     2     1    1
     9     2     5    1
    10     5     6    1
    11    15    16   ar
    12    15    17   ar
    13    18    19    1
    14    89    90    2
    15    89    88    1
    16     6     7    1
    17    88    87    1
    18    21    20    2
    19    19    20    1
    20    19    22    1
    21     7     8    2
    22     7     9   am
    23    22    23    1
    24    23    24    2
    25    23    25   am
    26    26    27    1
    27    44    43    1
    28    42    43   ar
    29    42    40   ar
    30    32    30    1
    31    81    82    2
    32    81    80    1
    33    43    41   ar
    34    40    38   ar
    35    29    28    2
    36    30    27    1
    37    30    31    1
    38    27    28    1
    39    80    79    1
    40    80    83    1
    41    41    39   ar
    42    38    39   ar
    43    38    37    1
    44    37    34    1
    45    83    84    1
    46    72    73   ar
    47    72    70   ar
    48    73    71   ar
    49    78    75    1
    50    76    75    1
    51    76    77    2
    52    33    34    1
    53    75    74    1
    54    34    35    1
    55    84    85    2
    56    84    86   am
    57    70    67   ar
    58    63    62    2
    59    71    69   ar
    60    36    35    2
    61    74    62   am
    62    49    50    1
    63    49    46    1
    64    62    61    1
    65    51    50    1
    66    51    45    1
    67    67    69   ar
    68    67    65   ar
    69    69    68   ar
    70    46    45    1
    71    46    47    1
    72    65    64    1
    73    65    66   ar
    74    61    64    1
    75    61    60    1
    76    68    66   ar
    77    60    54   am
    78    47    52   am
    79    47    48    2
    80    52    53    1
    81    54    53    1
    82    54    55    2
    83    53    56    1
    84    56    57    1
    85    56    58    1
    86    57    59    1
