@<TRIPOS>MOLECULE
tmp/1jpcA02.pdb
 90 86 0 0 0
SMALL
GASTEIGER

@<TRIPOS>ATOM
      1  N         60.8630   49.4000   17.8160 N.3    26  GLN26      -0.1245
      2  CA        60.6050   50.4680   18.7850 C.3    26  GLN26       0.1566
      3  C         61.8160   51.2620   19.2610 C.2    26  GLN26       0.2260
      4  O         62.9620   50.8060   19.1550 O.2    26  GLN26      -0.2867
      5  CB        59.8230   49.9290   19.9720 C.3    26  GLN26       0.0367
      6  CG        58.4740   49.3820   19.5810 C.3    26  GLN26       0.0905
      7  CD        57.7150   48.8280   20.7530 C.2    26  GLN26       0.2608
      8  OE1       58.2730   48.6060   21.8220 O.2    26  GLN26      -0.2717
      9  NE2       56.4280   48.6120   20.5670 N.am   26  GLN26      -0.0878
     10  N         62.6080   51.8920   22.2270 N.3    28  ASP28      -0.1239
     11  CA        63.1870   51.2930   23.4200 C.3    28  ASP28       0.1674
     12  C         63.9490   50.0120   23.0390 C.2    28  ASP28       0.2266
     13  O         64.2060   49.1580   23.8830 O.2    28  ASP28      -0.2867
     14  CB        62.1070   51.0010   24.4680 C.3    28  ASP28       0.1410
     15  CG        61.1790   49.8670   24.0690 C.2    28  ASP28       0.3668
     16  OD1       61.2410   49.4020   22.9110 O.co2  28  ASP28      -0.2456
     17  OD2       60.3790   49.4400   24.9230 O.co2  28  ASP28      -0.2456
     18  N         63.0320   47.3540   21.5220 N.3    30  ASN30      -0.1240
     19  CA        62.3010   46.0930   21.5150 C.3    30  ASN30       0.1653
     20  C         61.6860   45.9520   20.1110 C.2    30  ASN30       0.2266
     21  O         61.1790   46.9290   19.5510 O.2    30  ASN30      -0.2867
     22  CB        61.2050   46.1170   22.5840 C.3    30  ASN30       0.1155
     23  CG        60.7750   44.7280   23.0220 C.2    30  ASN30       0.2627
     24  OD1       61.4030   43.7280   22.6720 O.2    30  ASN30      -0.2716
     25  ND2       59.7030   44.6600   23.7950 N.am   30  ASN30      -0.0877
     26  N         58.8720   44.3360   18.1800 N.3    32  VAL32      -0.1245
     27  CA        57.5990   43.7030   18.5090 C.3    32  VAL32       0.1561
     28  C         56.6050   43.5070   17.3720 C.2    32  VAL32       0.2260
     29  O         56.4440   44.3700   16.5120 O.2    32  VAL32      -0.2867
     30  CB        56.8650   44.5220   19.6100 C.3    32  VAL32       0.0252
     31  CG1       55.7300   43.7100   20.2380 C.3    32  VAL32       0.0019
     32  CG2       57.8480   45.0110   20.6710 C.3    32  VAL32       0.0019
     33  N         52.7600   43.1770   16.6490 N.3    34  TYR34      -0.1241
     34  CA        51.4830   43.4940   17.2680 C.3    34  TYR34       0.1605
     35  C         50.3370   43.0550   16.3880 C.2    34  TYR34       0.2264
     36  O         50.4410   43.1320   15.1650 O.2    34  TYR34      -0.2867
     37  CB        51.3280   45.0080   17.4320 C.3    34  TYR34       0.0534
     38  CG        52.1290   45.6100   18.5390 C.ar   34  TYR34      -0.0201
     39  CD1       51.6680   45.5610   19.8540 C.ar   34  TYR34      -0.0009
     40  CD2       53.3580   46.2210   18.2840 C.ar   34  TYR34      -0.0009
     41  CE1       52.4130   46.1020   20.8940 C.ar   34  TYR34       0.0417
     42  CE2       54.1150   46.7690   19.3170 C.ar   34  TYR34       0.0417
     43  CZ        53.6340   46.7030   20.6190 C.ar   34  TYR34       0.1957
     44  OH        54.3660   47.2390   21.6520 O.3    34  TYR34      -0.2866
     45  N         50.6220   42.5050   21.9420 N.3    39  PRO39      -0.2102
     46  CA        51.9650   42.0750   21.5280 C.3    39  PRO39       0.1504
     47  C         51.8690   40.5650   21.3180 C.2    39  PRO39       0.2576
     48  O         51.4270   39.8350   22.2120 O.2    39  PRO39      -0.2718
     49  CB        52.8220   42.3810   22.7630 C.3    39  PRO39       0.0282
     50  CG        52.0480   43.3780   23.5190 C.3    39  PRO39       0.0208
     51  CD        50.6280   42.9230   23.3470 C.3    39  PRO39       0.0893
     52  N         52.2140   40.1040   20.1230 N.am   40  ILE40      -0.1966
     53  CA        52.1580   38.6850   19.7910 C.3    40  ILE40       0.1727
     54  C         53.5330   38.0350   19.9330 C.2    40  ILE40       0.2616
     55  O         53.6390   36.8660   20.2920 O.2    40  ILE40      -0.2715
     56  CB        51.6210   38.4810   18.3410 C.3    40  ILE40       0.0290
     57  CG1       50.1730   38.9320   18.2680 C.3    40  ILE40       0.0022
     58  CG2       51.6750   37.0340   17.9230 C.3    40  ILE40       0.0023
     59  CD1       49.3200   38.3530   19.3700 C.3    40  ILE40       0.0001
     60  N         54.5840   38.8090   19.6930 N.am   41  TRP41      -0.1960
     61  CA        55.9510   38.3080   19.7550 C.3    41  TRP41       0.1771
     62  C         56.8710   39.5010   19.9650 C.2    41  TRP41       0.2619
     63  O         56.5690   40.6030   19.5100 O.2    41  TRP41      -0.2715
     64  CB        56.2940   37.6360   18.4150 C.3    41  TRP41       0.0590
     65  CG        57.6640   37.0350   18.3400 C.ar   41  TRP41       0.0006
     66  CD1       58.0210   35.7650   18.6990 C.ar   41  TRP41       0.0946
     67  CD2       58.8610   37.6720   17.8770 C.ar   41  TRP41       0.0152
     68  NE1       59.3640   35.5760   18.4920 N.ar   41  TRP41      -0.2442
     69  CE2       59.9040   36.7280   17.9880 C.ar   41  TRP41       0.0810
     70  CE3       59.1530   38.9480   17.3800 C.ar   41  TRP41       0.0012
     71  CZ2       61.2200   37.0230   17.6240 C.ar   41  TRP41       0.0191
     72  CZ3       60.4620   39.2390   17.0180 C.ar   41  TRP41       0.0001
     73  CH2       61.4790   38.2780   17.1430 C.ar   41  TRP41       0.0015
     74  N         57.9940   39.2830   20.6350 N.am   42  ALA42      -0.1977
     75  CA        58.9570   40.3520   20.8660 C.3    42  ALA42       0.1597
     76  C         60.3230   39.7320   21.1070 C.2    42  ALA42       0.2287
     77  O         60.4250   38.5370   21.4050 O.2    42  ALA42      -0.2864
     78  CB        58.5370   41.2120   22.0630 C.3    42  ALA42       0.0319
     79  N         62.1740   40.9710   23.3190 N.3    44  ASN44      -0.1240
     80  CA        62.2810   41.2070   24.7570 C.3    44  ASN44       0.1653
     81  C         63.5970   41.8930   25.1000 C.2    44  ASN44       0.2266
     82  O         64.2770   41.5250   26.0610 O.2    44  ASN44      -0.2867
     83  CB        62.1250   39.8930   25.5390 C.3    44  ASN44       0.1155
     84  CG        60.7900   39.1940   25.2680 C.2    44  ASN44       0.2627
     85  OD1       59.7160   39.7970   25.3490 O.2    44  ASN44      -0.2716
     86  ND2       60.8590   37.9170   24.9410 N.am   44  ASN44      -0.0877
     87  N         63.7020   45.4330   25.2810 N.3    46  GLY46      -0.1225
     88  CA        63.3370   46.8070   25.5860 C.3    46  GLY46       0.1811
     89  C         64.1250   47.3120   26.7770 C.2    46  GLY46       0.2280
     90  O         64.2440   46.6060   27.7850 O.2    46  GLY46      -0.2866
@<TRIPOS>BOND
     1    36    35    2
     2    35    34    1
     3    29    28    2
     4    33    34    1
     5    72    73   ar
     6    72    70   ar
     7    73    71   ar
     8    34    37    1
     9    28    27    1
    10    70    67   ar
    11    37    38    1
    12    71    69   ar
    13     1     2    1
    14    67    69   ar
    15    67    65   ar
    16    58    56    1
    17    69    68   ar
    18    26    27    1
    19    57    56    1
    20    57    59    1
    21    40    38   ar
    22    40    42   ar
    23    65    64    1
    24    65    66   ar
    25    56    53    1
    26    64    61    1
    27    68    66   ar
    28    27    30    1
    29    38    39   ar
    30     2     3    1
    31     2     5    1
    32     4     3    2
    33    42    43   ar
    34    63    62    2
    35    21    20    2
    36     6     5    1
    37     6     7    1
    38    30    31    1
    39    30    32    1
    40    60    61    1
    41    60    54   am
    42    61    62    1
    43    53    54    1
    44    53    52    1
    45    39    41   ar
    46    54    55    2
    47    62    74   am
    48    20    19    1
    49    52    47   am
    50     9     7   am
    51    43    41   ar
    52    43    44    1
    53    74    75    1
    54     7     8    2
    55    75    76    1
    56    75    78    1
    57    76    77    2
    58    47    46    1
    59    47    48    2
    60    19    18    1
    61    19    22    1
    62    46    45    1
    63    46    49    1
    64    45    51    1
    65    10    11    1
    66    22    23    1
    67    24    23    2
    68    49    50    1
    69    16    15   ar
    70    23    25   am
    71    12    11    1
    72    12    13    2
    73    79    80    1
    74    51    50    1
    75    11    14    1
    76    15    14    1
    77    15    17   ar
    78    80    81    1
    79    80    83    1
    80    86    84   am
    81    81    82    2
    82    84    85    2
    83    84    83    1
    84    87    88    1
    85    88    89    1
    86    89    90    2
