@<TRIPOS>MOLECULE
tmp/1jplG00.pdb
 156 150 0 0 0
SMALL
GASTEIGER

@<TRIPOS>ATOM
      1  N         85.7290   55.7060   84.1990 N.3    87  LYS87      -0.1231
      2  CA        84.7020   54.7310   83.8670 C.3    87  LYS87       0.1693
      3  C         84.8710   54.2670   82.4320 C.2    87  LYS87       0.2592
      4  O         85.1980   55.0570   81.5420 O.2    87  LYS87      -0.2718
      5  CB        83.3080   55.3210   84.0730 C.3    87  LYS87       0.0285
      6  CG        82.9040   55.4600   85.5420 C.3    87  LYS87       0.0035
      7  CD        81.5160   56.0770   85.6770 C.3    87  LYS87       0.0206
      8  CE        81.1170   56.2840   87.1330 C.3    87  LYS87       0.1093
      9  NZ        79.7430   56.8880   87.2340 N.3    87  LYS87      -0.1314
     10  N         84.6650   52.9760   82.2170 N.am   88  PHE88      -0.1962
     11  CA        84.7940   52.3940   80.8930 C.3    88  PHE88       0.1771
     12  C         83.8780   53.0700   79.8820 C.2    88  PHE88       0.2619
     13  O         84.2100   53.1360   78.6970 O.2    88  PHE88      -0.2715
     14  CB        84.4770   50.8940   80.9320 C.3    88  PHE88       0.0574
     15  CG        85.5600   50.0550   81.5350 C.ar   88  PHE88      -0.0200
     16  CD1       86.8600   50.1250   81.0500 C.ar   88  PHE88      -0.0042
     17  CD2       85.2770   49.1780   82.5810 C.ar   88  PHE88      -0.0042
     18  CE1       87.8620   49.3350   81.5970 C.ar   88  PHE88      -0.0003
     19  CE2       86.2710   48.3810   83.1340 C.ar   88  PHE88      -0.0003
     20  CZ        87.5630   48.4590   82.6440 C.ar   88  PHE88      -0.0000
     21  N         82.7220   53.5580   80.3280 N.am   89  ARG89      -0.1977
     22  CA        81.8260   54.2130   79.3830 C.3    89  ARG89       0.1597
     23  C         82.4730   55.4530   78.7810 C.2    89  ARG89       0.2287
     24  O         82.0000   55.9690   77.7750 O.2    89  ARG89      -0.2864
     25  CB        80.4490   54.5240   79.9990 C.3    89  ARG89       0.0334
     26  CG        80.4310   55.2620   81.3140 C.3    89  ARG89       0.0492
     27  CD        79.0240   55.1660   81.9140 C.3    89  ARG89       0.2205
     28  NE        78.8220   56.0700   83.0450 N.pl3  89  ARG89      -0.0865
     29  CZ        77.7550   56.0390   83.8380 C.cat  89  ARG89       0.5346
     30  NH1       76.7980   55.1430   83.6240 N.pl3  89  ARG89       0.1354
     31  NH2       77.6380   56.9070   84.8380 N.pl3  89  ARG89       0.1354
     32  N         86.3460   55.7150   78.8650 N.3    91  LEU91      -0.1231
     33  CA        87.5730   55.1420   78.3240 C.3    91  LEU91       0.1693
     34  C         87.3370   54.3900   77.0150 C.2    91  LEU91       0.2592
     35  O         88.1620   54.4590   76.1030 O.2    91  LEU91      -0.2718
     36  CB        88.2120   54.2010   79.3480 C.3    91  LEU91       0.0284
     37  CG        88.6550   54.9040   80.6320 C.3    91  LEU91       0.0019
     38  CD1       89.0030   53.8750   81.6990 C.3    91  LEU91       0.0001
     39  CD2       89.8510   55.8180   80.3190 C.3    91  LEU91       0.0001
     40  N         86.2180   53.6750   76.9200 N.am   92  ASN92      -0.1974
     41  CA        85.9160   52.9170   75.7070 C.3    92  ASN92       0.1688
     42  C         85.9220   53.8290   74.4870 C.2    92  ASN92       0.2292
     43  O         86.3910   53.4490   73.4110 O.2    92  ASN92      -0.2864
     44  CB        84.5610   52.2060   75.8300 C.3    92  ASN92       0.1181
     45  CG        84.6400   50.9400   76.6770 C.2    92  ASN92       0.2629
     46  OD1       85.7260   50.4700   77.0070 O.2    92  ASN92      -0.2716
     47  ND2       83.4890   50.3780   77.0180 N.am   92  ASN92      -0.0877
     48  N         89.4950   54.4050   73.4770 N.3    95  ILE95      -0.1231
     49  CA        90.2000   53.3230   72.8040 C.3    95  ILE95       0.1692
     50  C         89.7430   53.2280   71.3570 C.2    95  ILE95       0.2591
     51  O         90.5200   52.8490   70.4900 O.2    95  ILE95      -0.2718
     52  CB        90.0310   51.9460   73.5170 C.3    95  ILE95       0.0266
     53  CG1       88.9230   51.1310   72.8670 C.3    95  ILE95       0.0019
     54  CG2       89.7110   52.1480   74.9880 C.3    95  ILE95       0.0020
     55  CD1       88.8500   49.7260   73.4170 C.3    95  ILE95       0.0001
     56  N         88.4880   53.5880   71.1000 N.am   96  LYS96      -0.1980
     57  CA        87.9440   53.5550   69.7440 C.3    96  LYS96       0.1596
     58  C         88.7740   54.4480   68.8440 C.2    96  LYS96       0.2287
     59  O         89.0060   54.1260   67.6800 O.2    96  LYS96      -0.2864
     60  CB        86.4970   54.0540   69.7180 C.3    96  LYS96       0.0298
     61  CG        85.4800   53.1320   70.3540 C.3    96  LYS96       0.0038
     62  CD        84.0710   53.6510   70.0760 C.3    96  LYS96       0.0206
     63  CE        83.0080   52.8250   70.7850 C.3    96  LYS96       0.1093
     64  NZ        81.6330   53.3900   70.5650 N.3    96  LYS96      -0.1314
     65  N         92.1340   52.4730   68.1940 N.3    99  SER99      -0.1203
     66  CA        92.0170   51.1000   67.7190 C.3    99  SER99       0.2005
     67  C         91.6510   51.0740   66.2400 C.2    99  SER99       0.2461
     68  O         90.6490   51.6670   65.8320 O.2    99  SER99      -0.2732
     69  CB        90.9480   50.3580   68.5160 C.3    99  SER99       0.2103
     70  OG        90.5720   49.1690   67.8410 O.3    99  SER99      -0.2182
     71  N         92.4570   50.3850   65.4140 N.am  100  PRO100     -0.2717
     72  CA        92.2060   50.2910   63.9710 C.3   100  PRO100      0.1535
     73  C         90.8260   49.7200   63.6580 C.2   100  PRO100      0.2598
     74  O         90.2190   50.0710   62.6470 O.2   100  PRO100     -0.2715
     75  CB        93.3250   49.3760   63.4850 C.3   100  PRO100      0.0310
     76  CG        94.4360   49.6540   64.4570 C.3   100  PRO100      0.0237
     77  CD        93.7030   49.6860   65.7740 C.3   100  PRO100      0.0939
     78  N         90.3350   48.8440   64.5330 N.am  101  LYS101     -0.1964
     79  CA        89.0250   48.2170   64.3520 C.3   101  LYS101      0.1728
     80  C         87.8850   49.2290   64.3530 C.2   101  LYS101      0.2616
     81  O         86.7640   48.9120   63.9500 O.2   101  LYS101     -0.2715
     82  CB        88.7820   47.1710   65.4450 C.3   101  LYS101      0.0311
     83  CG        89.9290   46.1890   65.5950 C.3   101  LYS101      0.0038
     84  CD        90.3970   45.6760   64.2310 C.3   101  LYS101      0.0206
     85  CE        91.7920   45.0710   64.3110 C.3   101  LYS101      0.1093
     86  NZ        92.3510   44.7970   62.9550 N.3   101  LYS101     -0.1314
     87  N         88.1740   50.4430   64.8150 N.am  102  TYR102     -0.1974
     88  CA        87.1740   51.5040   64.8520 C.3   102  TYR102      0.1639
     89  C         87.6990   52.7480   64.1430 C.2   102  TYR102      0.2290
     90  O         88.1670   52.6740   63.0060 O.2   102  TYR102     -0.2864
     91  CB        86.8040   51.8480   66.2960 C.3   102  TYR102      0.0560
     92  CG        86.2990   50.6710   67.0980 C.ar  102  TYR102     -0.0198
     93  CD1       87.1850   49.7430   67.6370 C.ar  102  TYR102     -0.0009
     94  CD2       84.9350   50.4770   67.3060 C.ar  102  TYR102     -0.0009
     95  CE1       86.7330   48.6490   68.3620 C.ar  102  TYR102      0.0417
     96  CE2       84.4690   49.3830   68.0320 C.ar  102  TYR102      0.0417
     97  CZ        85.3800   48.4760   68.5560 C.ar  102  TYR102      0.1957
     98  OH        84.9390   47.4010   69.2810 O.3   102  TYR102     -0.2866
     99  N         90.2190   51.1550   86.3040 N.3   130  LYS130     -0.1245
    100  CA        89.8050   50.9880   84.9200 C.3   130  LYS130      0.1561
    101  C         90.6990   51.7350   83.9430 C.2   130  LYS130      0.2260
    102  O         90.8220   51.3390   82.7880 O.2   130  LYS130     -0.2867
    103  CB        88.3450   51.4140   84.7620 C.3   130  LYS130      0.0271
    104  CG        87.3960   50.6090   85.6410 C.3   130  LYS130      0.0035
    105  CD        85.9460   51.0140   85.4190 C.3   130  LYS130      0.0206
    106  CE        85.0070   50.2330   86.3350 C.3   130  LYS130      0.1093
    107  NZ        83.6090   50.7600   86.2880 N.3   130  LYS130     -0.1314
    108  N         93.3900   49.1980   83.4890 N.3   133  ASP133     -0.1225
    109  CA        92.8970   48.0590   82.7160 C.3   133  ASP133      0.1805
    110  C         92.8410   48.4210   81.2450 C.2   133  ASP133      0.2597
    111  O         93.1850   47.6170   80.3770 O.2   133  ASP133     -0.2718
    112  CB        91.4960   47.6500   83.1780 C.3   133  ASP133      0.1424
    113  CG        91.4970   46.9990   84.5480 C.2   133  ASP133      0.3668
    114  OD1       92.5860   46.8610   85.1530 O.co2 133  ASP133     -0.2456
    115  OD2       90.3990   46.6250   85.0220 O.co2 133  ASP133     -0.2456
    116  N         92.3980   49.6410   80.9720 N.am  134  ALA134     -0.1979
    117  CA        92.2960   50.1140   79.6070 C.3   134  ALA134      0.1597
    118  C         93.6850   50.3000   79.0020 C.2   134  ALA134      0.2287
    119  O         93.9690   49.7830   77.9170 O.2   134  ALA134     -0.2864
    120  CB        91.5160   51.4250   79.5650 C.3   134  ALA134      0.0319
    121  N         95.6770   48.0830   75.7950 N.3   137  LEU137     -0.1245
    122  CA        96.2230   48.6850   74.5830 C.3   137  LEU137      0.1561
    123  C         97.6670   48.2230   74.3350 C.2   137  LEU137      0.2260
    124  O         98.1290   48.1790   73.1890 O.2   137  LEU137     -0.2867
    125  CB        96.1690   50.2120   74.6900 C.3   137  LEU137      0.0270
    126  CG        94.7600   50.8050   74.8020 C.3   137  LEU137      0.0019
    127  CD1       94.8380   52.3120   75.0010 C.3   137  LEU137      0.0001
    128  CD2       93.9740   50.4670   73.5490 C.3   137  LEU137      0.0001
    129  N         98.8550   45.1500   75.4520 N.3   139  ARG139     -0.1231
    130  CA        98.8110   43.7220   75.1470 C.3   139  ARG139      0.1694
    131  C         98.3540   43.5020   73.7100 C.2   139  ARG139      0.2591
    132  O         98.7260   42.5110   73.0830 O.2   139  ARG139     -0.2718
    133  CB        97.8620   42.9770   76.0900 C.3   139  ARG139      0.0321
    134  CG        98.2280   43.0750   77.5550 C.3   139  ARG139      0.0489
    135  CD        97.5330   41.9850   78.3510 C.3   139  ARG139      0.2205
    136  NE        96.0810   42.0580   78.2200 N.pl3 139  ARG139     -0.0865
    137  CZ        95.3000   42.8570   78.9410 C.cat 139  ARG139      0.5346
    138  NH1       95.8300   43.6550   79.8550 N.pl3 139  ARG139      0.1354
    139  NH2       93.9850   42.8570   78.7460 N.pl3 139  ARG139      0.1354
    140  N         97.5470   44.4290   73.1950 N.am  140  GLN140     -0.1979
    141  CA        97.0360   44.3390   71.8270 C.3   140  GLN140      0.1601
    142  C         98.0310   44.9110   70.8280 C.2   140  GLN140      0.2287
    143  O         97.8410   44.7850   69.6230 O.2   140  GLN140     -0.2864
    144  CB        95.7010   45.0870   71.6860 C.3   140  GLN140      0.0394
    145  CG        94.5340   44.4960   72.4690 C.3   140  GLN140      0.0908
    146  CD        94.0150   43.1810   71.8930 C.2   140  GLN140      0.2608
    147  OE1       92.9710   42.6660   72.3230 O.2   140  GLN140     -0.2717
    148  NE2       94.7370   42.6330   70.9190 N.am  140  GLN140     -0.0878
    149  N         98.7200   48.1270   70.3720 N.3   142  ILE142     -0.1245
    150  CA        98.4010   49.4860   69.9320 C.3   142  ILE142      0.1561
    151  C         99.4580   50.4420   70.4880 C.2   142  ILE142      0.2260
    152  O         99.8750   51.3920   69.8150 O.2   142  ILE142     -0.2867
    153  CB        97.0020   49.9390   70.4180 C.3   142  ILE142      0.0252
    154  CG1       95.9200   49.0410   69.8110 C.3   142  ILE142      0.0019
    155  CG2       96.7630   51.3850   70.0200 C.3   142  ILE142      0.0019
    156  CD1       95.9320   49.0300   68.3010 C.3   142  ILE142      0.0001
@<TRIPOS>BOND
     1    74    73    2
     2    86    85    1
     3    90    89    2
     4    75    72    1
     5    75    76    1
     6    73    72    1
     7    73    78   am
     8    81    80    2
     9    72    71    1
    10    89    88    1
    11    84    85    1
    12    84    83    1
    13    79    80    1
    14    79    78    1
    15    79    82    1
    16    80    87   am
    17    76    77    1
    18    87    88    1
    19    88    91    1
    20    71    77    1
    21    71    67   am
    22    82    83    1
    23    68    67    2
    24    67    66    1
    25    91    92    1
    26    92    94   ar
    27    92    93   ar
    28    94    96   ar
    29    93    95   ar
    30    59    58    2
    31    66    65    1
    32    66    69    1
    33    70    69    1
    34    96    97   ar
    35   156   154    1
    36    95    97   ar
    37    97    98    1
    38    58    57    1
    39   143   142    2
    40    60    57    1
    41    60    61    1
    42    57    56    1
    43   154   153    1
    44   152   151    2
    45   150   149    1
    46   150   153    1
    47   150   151    1
    48   155   153    1
    49    62    61    1
    50    62    63    1
    51    51    50    2
    52    64    63    1
    53   142   141    1
    54   148   146   am
    55    56    50   am
    56    50    49    1
    57   144   141    1
    58   144   145    1
    59   141   140    1
    60   146   147    2
    61   146   145    1
    62    49    48    1
    63    49    52    1
    64    53    55    1
    65    53    52    1
    66   132   131    2
    67   124   123    2
    68   140   131   am
    69    43    42    2
    70    52    54    1
    71   128   126    1
    72   131   130    1
    73   123   122    1
    74    42    41    1
    75   122   125    1
    76   122   121    1
    77   125   126    1
    78   126   127    1
    79   130   129    1
    80   130   133    1
    81    41    44    1
    82    41    40    1
    83    44    45    1
    84   133   134    1
    85    35    34    2
    86    45    46    2
    87    45    47   am
    88    40    34   am
    89    34    33    1
    90   134   135    1
    91    24    23    2
    92   119   118    2
    93   136   135    1
    94   136   137    2
    95    33    32    1
    96    33    36    1
    97    13    12    2
    98   139   137    1
    99    23    22    1
   100   137   138    1
   101   118   117    1
   102    36    37    1
   103    22    25    1
   104    22    21    1
   105   120   117    1
   106   117   116    1
   107    12    21   am
   108    12    11    1
   109    25    26    1
   110    39    37    1
   111   111   110    2
   112    37    38    1
   113    11    14    1
   114    11    10    1
   115    14    15    1
   116   116   110   am
   117    16    15   ar
   118    16    18   ar
   119   110   109    1
   120    26    27    1
   121    15    17   ar
   122     4     3    2
   123    18    20   ar
   124    27    28    1
   125    10     3   am
   126     3     2    1
   127    17    19   ar
   128    20    19   ar
   129   109   112    1
   130   109   108    1
   131   102   101    2
   132    28    29    2
   133   112   113    1
   134    30    29    1
   135    29    31    1
   136     2     5    1
   137     2     1    1
   138   101   100    1
   139     5     6    1
   140   113   115   ar
   141   113   114   ar
   142   103   100    1
   143   103   104    1
   144   100    99    1
   145   105   104    1
   146   105   106    1
   147     6     7    1
   148     7     8    1
   149   107   106    1
   150     8     9    1
