@<TRIPOS>MOLECULE
tmp/1jpnB00.pdb
 142 134 0 0 0
SMALL
GASTEIGER

@<TRIPOS>ATOM
      1  N         68.2210   34.8450    9.8300 N.3   106  LEU106     -0.1231
      2  CA        69.2140   35.7640   10.3640 C.3   106  LEU106      0.1693
      3  C         70.2960   35.0390   11.1500 C.2   106  LEU106      0.2592
      4  O         70.1350   33.8830   11.5390 O.2   106  LEU106     -0.2718
      5  CB        68.5410   36.7960   11.2750 C.3   106  LEU106      0.0284
      6  CG        67.3440   37.5650   10.7130 C.3   106  LEU106      0.0019
      7  CD1       66.7710   38.4650   11.7950 C.3   106  LEU106      0.0001
      8  CD2       67.7750   38.3840    9.5060 C.3   106  LEU106      0.0001
      9  N         71.4040   35.7340   11.3790 N.am  107  GLN107     -0.1966
     10  CA        72.5120   35.1780   12.1370 C.3   107  GLN107      0.1733
     11  C         72.0390   34.9450   13.5700 C.2   107  GLN107      0.2617
     12  O         71.2480   35.7230   14.1040 O.2   107  GLN107     -0.2715
     13  CB        73.6900   36.1530   12.1210 C.3   107  GLN107      0.0408
     14  CG        74.8190   35.7930   13.0660 C.3   107  GLN107      0.0908
     15  CD        75.9240   36.8270   13.0550 C.2   107  GLN107      0.2608
     16  OE1       76.4190   37.2090   11.9940 O.2   107  GLN107     -0.2717
     17  NE2       76.3150   37.2900   14.2380 N.am  107  GLN107     -0.0878
     18  N         72.5150   33.8690   14.1860 N.am  108  GLY108     -0.1940
     19  CA        72.1170   33.5670   15.5480 C.3   108  GLY108      0.2014
     20  C         70.7790   32.8560   15.6180 C.2   108  GLY108      0.2640
     21  O         70.2920   32.5400   16.7030 O.2   108  GLY108     -0.2714
     22  N         70.1820   32.6030   14.4580 N.am  109  SER109     -0.1935
     23  CA        68.8940   31.9220   14.3920 C.3   109  SER109      0.2055
     24  C         69.0670   30.4100   14.5040 C.2   109  SER109      0.2644
     25  O         68.1020   29.6800   14.7380 O.2   109  SER109     -0.2714
     26  CB        68.1950   32.2560   13.0730 C.3   109  SER109      0.2130
     27  OG        68.8490   31.6280   11.9820 O.3   109  SER109     -0.2179
     28  N         70.3030   29.9500   14.3410 N.am  110  GLY110     -0.1939
     29  CA        70.5850   28.5270   14.4060 C.3   110  GLY110      0.2014
     30  C         70.4960   27.9150   13.0200 C.2   110  GLY110      0.2639
     31  O         70.4140   26.6970   12.8690 O.2   110  GLY110     -0.2714
     32  N         70.5230   28.7730   12.0040 N.am  111  LYS111     -0.1963
     33  CA        70.4240   28.3480   10.6110 C.3   111  LYS111      0.1728
     34  C         71.5050   27.3650   10.1520 C.2   111  LYS111      0.2617
     35  O         71.1960   26.3090    9.5950 O.2   111  LYS111     -0.2715
     36  CB        70.4290   29.5830    9.7000 C.3   111  LYS111      0.0311
     37  CG        70.5760   29.2790    8.2120 C.3   111  LYS111      0.0038
     38  CD        70.4470   30.5390    7.3630 C.3   111  LYS111      0.0206
     39  CE        71.5360   31.5540    7.6840 C.3   111  LYS111      0.1093
     40  NZ        72.9050   30.9950    7.5030 N.3   111  LYS111     -0.1314
     41  N         72.7670   27.7080   10.3820 N.am  112  THR112     -0.1937
     42  CA        73.8700   26.8500    9.9580 C.3   112  THR112      0.2028
     43  C         73.8980   25.5160   10.6930 C.2   112  THR112      0.2643
     44  O         74.0740   24.4670   10.0730 O.2   112  THR112     -0.2714
     45  CB        75.2310   27.5590   10.1380 C.3   112  THR112      0.1808
     46  OG1       75.3370   28.6230    9.1850 O.3   112  THR112     -0.2208
     47  CG2       76.3840   26.5830    9.9140 C.3   112  THR112      0.0379
     48  N         73.7270   25.5520   12.0100 N.am  113  THR113     -0.1936
     49  CA        73.7340   24.3240   12.7910 C.3   113  THR113      0.2028
     50  C         72.5400   23.4610   12.3950 C.2   113  THR113      0.2642
     51  O         72.6250   22.2350   12.3960 O.2   113  THR113     -0.2714
     52  CB        73.6740   24.6100   14.3080 C.3   113  THR113      0.1808
     53  OG1       72.6120   25.5300   14.5830 O.3   113  THR113     -0.2208
     54  CG2       74.9900   25.2010   14.7920 C.3   113  THR113      0.0379
     55  N         71.4310   24.1080   12.0480 N.am  114  THR114     -0.1950
     56  CA        70.2240   23.3940   11.6420 C.3   114  THR114      0.1897
     57  C         70.4430   22.7120   10.2920 C.2   114  THR114      0.2313
     58  O         69.8940   21.6410   10.0300 O.2   114  THR114     -0.2863
     59  CB        69.0130   24.3510   11.5330 C.3   114  THR114      0.1794
     60  OG1       68.6310   24.7900   12.8420 O.3   114  THR114     -0.2208
     61  CG2       67.8300   23.6490   10.8850 C.3   114  THR114      0.0378
     62  N         72.2530   19.5830   11.0650 N.3   117  LYS117     -0.1245
     63  CA        71.3680   18.6820   11.7930 C.3   117  LYS117      0.1561
     64  C         70.3690   18.0360   10.8380 C.2   117  LYS117      0.2260
     65  O         70.0660   16.8480   10.9540 O.2   117  LYS117     -0.2867
     66  CB        70.6260   19.4450   12.8930 C.3   117  LYS117      0.0271
     67  CG        71.5010   19.8020   14.0820 C.3   117  LYS117      0.0035
     68  CD        70.6980   20.4360   15.2040 C.3   117  LYS117      0.0206
     69  CE        71.6190   21.0790   16.2300 C.3   117  LYS117      0.1093
     70  NZ        71.0760   20.9790   17.6110 N.3   117  LYS117     -0.1314
     71  N         82.0070   31.8980    7.6670 N.3   141  ALA141     -0.1245
     72  CA        80.6890   31.2790    7.6840 C.3   141  ALA141      0.1562
     73  C         80.7220   29.9550    6.9290 C.2   141  ALA141      0.2260
     74  O         80.0740   28.9840    7.3260 O.2   141  ALA141     -0.2867
     75  CB        79.6670   32.2140    7.0560 C.3   141  ALA141      0.0290
     76  N         82.6690   27.2450    8.8980 N.3   144  GLN144     -0.1245
     77  CA        81.8820   26.7280   10.0140 C.3   144  GLN144      0.1566
     78  C         81.0520   25.5260    9.5730 C.2   144  GLN144      0.2260
     79  O         80.9890   24.5150   10.2760 O.2   144  GLN144     -0.2867
     80  CB        80.9500   27.8080   10.5710 C.3   144  GLN144      0.0367
     81  CG        80.0840   27.3200   11.7330 C.3   144  GLN144      0.0905
     82  CD        78.9930   28.3040   12.1230 C.2   144  GLN144      0.2608
     83  OE1       78.7070   29.2570   11.3970 O.2   144  GLN144     -0.2717
     84  NE2       78.3760   28.0740   13.2790 N.am  144  GLN144     -0.0878
     85  N         73.8410   34.4430    6.5190 N.3   190  GLY190     -0.1225
     86  CA        73.0930   34.9060    7.6700 C.3   190  GLY190      0.1811
     87  C         73.6500   36.2150    8.1980 C.2   190  GLY190      0.2280
     88  O         74.8510   36.3320    8.4460 O.2   190  GLY190     -0.2866
     89  N         63.9820   27.0640   16.2670 N.3   245  THR245     -0.1203
     90  CA        65.0860   26.5850   17.0880 C.3   245  THR245      0.1994
     91  C         65.0400   27.1510   18.4990 C.2   245  THR245      0.2617
     92  O         64.2900   28.0840   18.7820 O.2   245  THR245     -0.2717
     93  CB        66.4390   26.9670   16.4630 C.3   245  THR245      0.1784
     94  OG1       66.5970   28.3920   16.5000 O.3   245  THR245     -0.2211
     95  CG2       66.5110   26.4900   15.0190 C.3   245  THR245      0.0376
     96  N         65.8550   26.5760   19.3770 N.am  246  LYS246     -0.1979
     97  CA        65.9410   27.0110   20.7660 C.3   246  LYS246      0.1596
     98  C         64.6100   26.9220   21.5060 C.2   246  LYS246      0.2287
     99  O         64.3410   27.7110   22.4130 O.2   246  LYS246     -0.2864
    100  CB        66.4760   28.4440   20.8340 C.3   246  LYS246      0.0298
    101  CG        67.9870   28.5440   20.6750 C.3   246  LYS246      0.0038
    102  CD        68.4100   29.9400   20.2590 C.3   246  LYS246      0.0206
    103  CE        69.3700   29.9000   19.0830 C.3   246  LYS246      0.1093
    104  NZ        70.1790   31.1480   18.9860 N.3   246  LYS246     -0.1314
    105  N         63.9580   24.9810   23.5250 N.3   248  ASP248     -0.1225
    106  CA        64.3490   24.5890   24.8760 C.3   248  ASP248      0.1805
    107  C         64.7540   25.8010   25.7100 C.2   248  ASP248      0.2598
    108  O         64.8430   25.7220   26.9350 O.2   248  ASP248     -0.2718
    109  CB        65.5160   23.5990   24.8160 C.3   248  ASP248      0.1424
    110  CG        66.6470   24.0790   23.9210 C.2   248  ASP248      0.3668
    111  OD1       66.4030   24.3130   22.7170 O.co2 248  ASP248     -0.2456
    112  OD2       67.7830   24.2220   24.4190 O.co2 248  ASP248     -0.2456
    113  N         64.9980   26.9200   25.0350 N.am  249  GLY249     -0.1957
    114  CA        65.3990   28.1340   25.7220 C.3   249  GLY249      0.1869
    115  C         64.2890   28.7900   26.5190 C.2   249  GLY249      0.2309
    116  O         63.1050   28.5640   26.2660 O.2   249  GLY249     -0.2863
    117  N         64.1210   22.8550   16.9300 N.3   271  GLY271     -0.1210
    118  CA        65.3770   22.6180   17.6150 C.3   271  GLY271      0.1956
    119  C         65.1190   22.5950   19.1060 C.2   271  GLY271      0.2612
    120  O         64.4840   23.5040   19.6390 O.2   271  GLY271     -0.2717
    121  N         65.6030   21.5610   19.7870 N.am  272  VAL272     -0.1965
    122  CA        65.3880   21.4470   21.2250 C.3   272  VAL272      0.1727
    123  C         66.6750   21.3080   22.0310 C.2   272  VAL272      0.2617
    124  O         66.6320   21.0230   23.2280 O.2   272  VAL272     -0.2715
    125  CB        64.4750   20.2480   21.5500 C.3   272  VAL272      0.0290
    126  CG1       63.0870   20.4800   20.9670 C.3   272  VAL272      0.0023
    127  CG2       65.0800   18.9670   20.9950 C.3   272  VAL272      0.0023
    128  N         67.8140   21.5130   21.3790 N.am  273  SER273     -0.1936
    129  CA        69.1060   21.4140   22.0500 C.3   273  SER273      0.2055
    130  C         70.2480   21.7210   21.0890 C.2   273  SER273      0.2642
    131  O         70.0390   21.8430   19.8830 O.2   273  SER273     -0.2714
    132  CB        69.2920   20.0110   22.6360 C.3   273  SER273      0.2130
    133  OG        70.2730   19.2810   21.9210 O.3   273  SER273     -0.2179
    134  N         71.4540   21.8460   21.6330 N.am  274  GLU274     -0.1976
    135  CA        72.6340   22.1320   20.8250 C.3   274  GLU274      0.1602
    136  C         73.2380   20.8380   20.2890 C.2   274  GLU274      0.2287
    137  O         74.0020   20.8510   19.3240 O.2   274  GLU274     -0.2864
    138  CB        73.6790   22.8760   21.6590 C.3   274  GLU274      0.0415
    139  CG        73.2990   24.3060   22.0000 C.3   274  GLU274      0.1163
    140  CD        74.3080   24.9750   22.9150 C.2   274  GLU274      0.3649
    141  OE1       75.2400   25.6260   22.3980 O.co2 274  GLU274     -0.2457
    142  OE2       74.1670   24.8510   24.1510 O.co2 274  GLU274     -0.2457
@<TRIPOS>BOND
     1    85    86    1
     2    73    74    2
     3    73    72    1
     4    75    72    1
     5    38    39    1
     6    38    37    1
     7    40    39    1
     8    71    72    1
     9    86    87    1
    10    87    88    2
    11    37    36    1
    12    76    77    1
    13    46    45    1
    14     8     6    1
    15    78    77    1
    16    78    79    2
    17    35    34    2
    18    36    33    1
    19     1     2    1
    20    47    45    1
    21    42    45    1
    22    42    41    1
    23    42    43    1
    24    77    80    1
    25    58    57    2
    26    44    43    2
    27    34    41   am
    28    34    33    1
    29    57    56    1
    30     2     3    1
    31     2     5    1
    32    80    81    1
    33    33    32    1
    34    43    48   am
    35     6     5    1
    36     6     7    1
    37    64    65    2
    38    64    63    1
    39    61    59    1
    40    62    63    1
    41     3     9   am
    42     3     4    2
    43     9    10    1
    44    83    82    2
    45    59    56    1
    46    59    60    1
    47    56    55    1
    48    81    82    1
    49    63    66    1
    50    27    26    1
    51    16    15    2
    52    32    30   am
    53    48    49    1
    54    55    50   am
    55    13    10    1
    56    13    14    1
    57    82    84   am
    58    10    11    1
    59    50    51    2
    60    50    49    1
    61    49    52    1
    62    31    30    2
    63    66    67    1
    64    30    29    1
    65    15    14    1
    66    15    17   am
    67    26    23    1
    68    11    12    2
    69    11    18   am
    70    67    68    1
    71    18    19    1
    72    52    53    1
    73    52    54    1
    74    28    29    1
    75    28    24   am
    76    23    22    1
    77    23    24    1
    78    22    20   am
    79    24    25    2
    80    95    93    1
    81    68    69    1
    82    19    20    1
    83    20    21    2
    84    69    70    1
    85    89    90    1
    86    93    94    1
    87    93    90    1
    88   117   118    1
    89    90    91    1
    90   118   119    1
    91    91    92    2
    92    91    96   am
    93   104   103    1
    94   103   102    1
    95   119   120    2
    96   119   121   am
    97   137   136    2
    98    96    97    1
    99   121   122    1
   100   131   130    2
   101   102   101    1
   102   136   135    1
   103   101   100    1
   104    97   100    1
   105    97    98    1
   106   135   134    1
   107   135   138    1
   108   126   125    1
   109   127   125    1
   110   130   134   am
   111   130   129    1
   112   122   125    1
   113   122   123    1
   114   128   123   am
   115   128   129    1
   116    98    99    2
   117   138   139    1
   118   133   132    1
   119   139   140    1
   120   123   124    2
   121   129   132    1
   122   141   140   ar
   123   111   110   ar
   124   140   142   ar
   125   105   106    1
   126   110   112   ar
   127   110   109    1
   128   109   106    1
   129   106   107    1
   130   113   107   am
   131   113   114    1
   132   107   108    2
   133   114   115    1
   134   116   115    2
