@<TRIPOS>MOLECULE
tmp/1jq7A00.pdb
 156 152 0 0 0
SMALL
GASTEIGER

@<TRIPOS>ATOM
      1  N         30.2670   26.0320   83.9080 N.3    25  GLU25      -0.1231
      2  CA        31.3460   26.6830   83.1610 C.3    25  GLU25       0.1699
      3  C         31.4600   26.3320   81.6620 C.2    25  GLU25       0.2592
      4  O         31.4440   27.2360   80.8040 O.2    25  GLU25      -0.2718
      5  CB        32.6800   26.4020   83.8660 C.3    25  GLU25       0.0402
      6  CG        33.8790   27.1230   83.2840 C.3    25  GLU25       0.1161
      7  CD        33.9450   28.5620   83.6390 C.2    25  GLU25       0.3649
      8  OE1       33.6610   28.9130   84.8130 O.co2  25  GLU25      -0.2457
      9  OE2       34.4300   29.3160   82.7230 O.co2  25  GLU25      -0.2457
     10  N         31.5760   25.0310   81.3610 N.am   26  LEU26      -0.1980
     11  CA        31.7160   24.5280   79.9870 C.3    26  LEU26       0.1596
     12  C         31.0170   25.3430   78.9090 C.2    26  LEU26       0.2287
     13  O         31.4670   25.3420   77.7560 O.2    26  LEU26      -0.2864
     14  CB        31.2560   23.0670   79.8850 C.3    26  LEU26       0.0297
     15  CG        30.0080   22.6020   80.6350 C.3    26  LEU26       0.0022
     16  CD1       29.4400   21.3480   79.9800 C.3    26  LEU26       0.0001
     17  CD2       30.3710   22.3460   82.0890 C.3    26  LEU26       0.0001
     18  N         38.8670   34.7420   70.7200 N.3    36  TRP36      -0.1241
     19  CA        39.7630   33.8130   71.4350 C.3    36  TRP36       0.1605
     20  C         40.8850   33.2370   70.5420 C.2    36  TRP36       0.2264
     21  O         41.9680   32.8930   71.0430 O.2    36  TRP36      -0.2867
     22  CB        38.9520   32.6550   72.0550 C.3    36  TRP36       0.0550
     23  CG        38.9070   32.6330   73.5830 C.ar   36  TRP36       0.0003
     24  CD1       39.5580   33.4850   74.4500 C.ar   36  TRP36       0.0946
     25  CD2       38.1730   31.7100   74.4110 C.ar   36  TRP36       0.0152
     26  NE1       39.2700   33.1420   75.7580 N.ar   36  TRP36      -0.2442
     27  CE2       38.4270   32.0610   75.7620 C.ar   36  TRP36       0.0810
     28  CE3       37.3240   30.6230   74.1430 C.ar   36  TRP36       0.0012
     29  CZ2       37.8600   31.3610   76.8390 C.ar   36  TRP36       0.0191
     30  CZ3       36.7580   29.9250   75.2220 C.ar   36  TRP36       0.0001
     31  CH2       37.0310   30.3000   76.5500 C.ar   36  TRP36       0.0015
     32  N         42.7170   12.5490   78.9400 N.3    46  ASN46      -0.1225
     33  CA        41.9220   13.0400   80.0650 C.3    46  ASN46       0.1785
     34  C         42.5780   14.2170   80.8020 C.2    46  ASN46       0.2597
     35  O         42.3220   14.4300   81.9890 O.2    46  ASN46      -0.2718
     36  CB        41.6360   11.9160   81.0620 C.3    46  ASN46       0.1169
     37  CG        40.3280   12.1190   81.8110 C.2    46  ASN46       0.2627
     38  OD1       39.9780   13.2380   82.1910 O.2    46  ASN46      -0.2716
     39  ND2       39.6020   11.0290   82.0370 N.am   46  ASN46      -0.0877
     40  N         43.4290   14.9630   80.0950 N.am   47  HIS47      -0.1975
     41  CA        44.0980   16.1500   80.6360 C.3    47  HIS47       0.1656
     42  C         45.4570   15.9840   81.2930 C.2    47  HIS47       0.2291
     43  O         46.2350   16.9350   81.3640 O.2    47  HIS47      -0.2864
     44  CB        43.1480   16.8650   81.5840 C.3    47  HIS47       0.0771
     45  CG        41.8680   17.2430   80.9270 C.ar   47  HIS47       0.0820
     46  ND1       41.8070   18.1970   79.9340 N.ar   47  HIS47      -0.2267
     47  CD2       40.6250   16.7220   81.0290 C.ar   47  HIS47       0.1154
     48  CE1       40.5800   18.2450   79.4500 C.ar   47  HIS47       0.1986
     49  NE2       39.8450   17.3590   80.0960 N.ar   47  HIS47      -0.2212
     50  N         37.4550   16.7590   74.5320 N.3   116  SER116     -0.1202
     51  CA        37.1160   17.6710   75.5990 C.3   116  SER116      0.2020
     52  C         38.0870   18.8500   75.6370 C.2   116  SER116      0.2619
     53  O         39.3010   18.6610   75.7980 O.2   116  SER116     -0.2717
     54  CB        37.1540   16.9210   76.9110 C.3   116  SER116      0.2103
     55  OG        37.3540   17.8290   77.9690 O.3   116  SER116     -0.2182
     56  N         37.5500   20.0650   75.4890 N.am  117  LEU117     -0.1965
     57  CA        38.3780   21.2700   75.4920 C.3   117  LEU117      0.1728
     58  C         38.7220   21.7120   76.8980 C.2   117  LEU117      0.2617
     59  O         38.1700   21.1970   77.8750 O.2   117  LEU117     -0.2715
     60  CB        37.6820   22.4250   74.7580 C.3   117  LEU117      0.0311
     61  CG        38.4650   23.7540   74.6740 C.3   117  LEU117      0.0022
     62  CD1       39.8790   23.5010   74.1930 C.3   117  LEU117      0.0001
     63  CD2       37.7600   24.7200   73.7430 C.3   117  LEU117      0.0001
     64  N         39.6370   22.6730   76.9930 N.am  118  SER118     -0.1936
     65  CA        40.0760   23.2040   78.2780 C.3   118  SER118      0.2055
     66  C         40.8640   24.5040   78.0680 C.2   118  SER118      0.2643
     67  O         42.0160   24.4700   77.6220 O.2   118  SER118     -0.2714
     68  CB        40.9470   22.1620   78.9950 C.3   118  SER118      0.2130
     69  OG        42.0080   21.7160   78.1630 O.3   118  SER118     -0.2179
     70  N         40.2460   25.6430   78.3820 N.am  119  SER119     -0.1949
     71  CA        40.8990   26.9490   78.2050 C.3   119  SER119      0.1924
     72  C         40.3360   28.0300   79.1370 C.2   119  SER119      0.2314
     73  O         39.7840   29.0460   78.6870 O.2   119  SER119     -0.2863
     74  CB        40.7700   27.4100   76.7380 C.3   119  SER119      0.2116
     75  OG        39.4160   27.4570   76.3100 O.3   119  SER119     -0.2180
     76  N         44.2080   26.4250   76.4790 N.3   122  LYS122     -0.1231
     77  CA        45.0870   25.4520   77.1370 C.3   122  LYS122      0.1693
     78  C         45.4410   24.2330   76.2740 C.2   122  LYS122      0.2592
     79  O         46.5720   24.1270   75.7780 O.2   122  LYS122     -0.2718
     80  CB        44.4510   24.9870   78.4720 C.3   122  LYS122      0.0285
     81  CG        44.4140   26.0430   79.6280 C.3   122  LYS122      0.0035
     82  CD        45.7300   26.7990   79.7020 C.3   122  LYS122      0.0206
     83  CE        45.7230   28.3260   79.8810 C.3   122  LYS122      0.1093
     84  NZ        45.0330   29.1100   78.8130 N.3   122  LYS122     -0.1314
     85  N         44.4790   23.3170   76.1090 N.am  123  HIS123     -0.1976
     86  CA        44.6910   22.1040   75.3070 C.3   123  HIS123      0.1656
     87  C         43.3870   21.3900   74.9430 C.2   123  HIS123      0.2291
     88  O         42.2970   21.7770   75.3820 O.2   123  HIS123     -0.2864
     89  CB        45.5870   21.1050   76.0620 C.3   123  HIS123      0.0771
     90  CG        44.9410   20.5120   77.2810 C.ar  123  HIS123      0.0820
     91  ND1       45.1140   21.0300   78.5490 N.ar  123  HIS123     -0.2267
     92  CD2       44.1070   19.4500   77.4230 C.ar  123  HIS123      0.1154
     93  CE1       44.4170   20.3120   79.4170 C.ar  123  HIS123      0.1986
     94  NE2       43.7980   19.3480   78.7600 N.ar  123  HIS123     -0.2212
     95  N         39.2640   11.5030   75.8080 N.3   127  CYS127     -0.1221
     96  CA        38.6950   10.9410   77.0280 C.3   127  CYS127      0.1808
     97  C         37.6550    9.8970   76.6570 C.2   127  CYS127      0.2602
     98  O         37.4880    9.5870   75.4840 O.2   127  CYS127     -0.2717
     99  CB        38.0590   12.0540   77.8470 C.3   127  CYS127      0.0970
    100  SG        37.3420   13.3820   76.8390 S.3   127  CYS127     -0.0800
    101  N         36.9480    9.3540   77.6390 N.am  128  SER128     -0.1938
    102  CA        35.9320    8.3320   77.3570 C.3   128  SER128      0.2055
    103  C         34.5430    8.9010   77.0570 C.2   128  SER128      0.2643
    104  O         33.6690    8.1770   76.5710 O.2   128  SER128     -0.2714
    105  CB        35.8380    7.3520   78.5200 C.3   128  SER128      0.2130
    106  OG        35.5300    8.0380   79.7160 O.3   128  SER128     -0.2179
    107  N         34.3500   10.1850   77.3720 N.am  129  VAL129     -0.1963
    108  CA        33.1020   10.9290   77.1330 C.3   129  VAL129      0.1727
    109  C         33.4410   12.4060   77.1610 C.2   129  VAL129      0.2617
    110  O         34.5600   12.7740   77.5160 O.2   129  VAL129     -0.2715
    111  CB        32.0320   10.6710   78.1930 C.3   129  VAL129      0.0290
    112  CG1       31.1950    9.4830   77.7880 C.3   129  VAL129      0.0023
    113  CG2       32.6750   10.4350   79.5430 C.3   129  VAL129      0.0023
    114  N         32.4940   13.2610   76.8000 N.am  130  GLY130     -0.1940
    115  CA        32.8060   14.6790   76.7800 C.3   130  GLY130      0.2014
    116  C         32.0210   15.5100   77.7680 C.2   130  GLY130      0.2639
    117  O         30.8240   15.2820   77.9590 O.2   130  GLY130     -0.2714
    118  N         32.6830   16.4740   78.4000 N.am  131  ARG131     -0.1963
    119  CA        31.9940   17.3270   79.3550 C.3   131  ARG131      0.1729
    120  C         30.7860   17.9370   78.6610 C.2   131  ARG131      0.2616
    121  O         29.6460   17.7290   79.0850 O.2   131  ARG131     -0.2715
    122  CB        32.9150   18.4490   79.8610 C.3   131  ARG131      0.0348
    123  CG        33.7030   18.1250   81.1320 C.3   131  ARG131      0.0492
    124  CD        32.8590   18.3080   82.3850 C.3   131  ARG131      0.2205
    125  NE        33.0450   19.6160   83.0210 N.pl3 131  ARG131     -0.0865
    126  CZ        32.4550   19.9840   84.1590 C.cat 131  ARG131      0.5346
    127  NH1       31.6390   19.1480   84.7920 N.pl3 131  ARG131      0.1354
    128  NH2       32.6800   21.1840   84.6710 N.pl3 131  ARG131      0.1354
    129  N         31.0430   18.6720   77.5790 N.am  132  ARG132     -0.1977
    130  CA        29.9830   19.3360   76.8300 C.3   132  ARG132      0.1597
    131  C         28.9430   18.3660   76.2590 C.2   132  ARG132      0.2287
    132  O         28.4080   17.5330   77.0030 O.2   132  ARG132     -0.2864
    133  CB        30.6110   20.2250   75.7500 C.3   132  ARG132      0.0334
    134  CG        31.1510   21.5560   76.3340 C.3   132  ARG132      0.0492
    135  CD        32.6680   21.7650   76.1680 C.3   132  ARG132      0.2205
    136  NE        33.2030   22.6990   77.1710 N.pl3 132  ARG132     -0.0865
    137  CZ        34.4200   23.2550   77.1370 C.cat 132  ARG132      0.5346
    138  NH1       35.2720   22.9940   76.1480 N.pl3 132  ARG132      0.1354
    139  NH2       34.7920   24.0800   78.1030 N.pl3 132  ARG132      0.1354
    140  N         31.6790    6.3970   84.7120 N.3   185  ILE185     -0.1245
    141  CA        31.0760    7.6240   84.2360 C.3   185  ILE185      0.1561
    142  C         29.6680    7.1640   83.9110 C.2   185  ILE185      0.2260
    143  O         29.4720    6.4490   82.9470 O.2   185  ILE185     -0.2867
    144  CB        31.7840    8.1120   82.9770 C.3   185  ILE185      0.0252
    145  CG1       33.2850    8.1990   83.2410 C.3   185  ILE185      0.0019
    146  CG2       31.2630    9.4740   82.5780 C.3   185  ILE185      0.0019
    147  CD1       34.1000    8.5650   82.0360 C.3   185  ILE185      0.0001
    148  N         25.1660    9.8850   76.5420 N.3   191  LYS191     -0.1245
    149  CA        25.9220   11.0890   76.2070 C.3   191  LYS191      0.1561
    150  C         26.7140   10.8650   74.9070 C.2   191  LYS191      0.2260
    151  O         26.9140   11.7830   74.1150 O.2   191  LYS191     -0.2867
    152  CB        26.8990   11.4420   77.3360 C.3   191  LYS191      0.0271
    153  CG        26.2890   12.0760   78.5800 C.3   191  LYS191      0.0035
    154  CD        27.3830   12.5930   79.5420 C.3   191  LYS191      0.0206
    155  CE        26.8000   13.5480   80.5950 C.3   191  LYS191      0.1093
    156  NZ        27.8340   14.1730   81.4810 N.3   191  LYS191     -0.1314
@<TRIPOS>BOND
     1    20    21    2
     2    20    19    1
     3    18    19    1
     4    19    22    1
     5    22    23    1
     6    23    25   ar
     7    23    24   ar
     8    63    61    1
     9   151   150    2
    10    28    25   ar
    11    28    30   ar
    12    62    61    1
    13    25    27   ar
    14    24    26   ar
    15    50    51    1
    16    61    60    1
    17    60    57    1
    18   150   149    1
    19    87    86    1
    20    87    88    2
    21    30    31   ar
    22    86    89    1
    23    86    85    1
    24    98    97    2
    25    56    57    1
    26    56    52   am
    27    57    58    1
    28    51    52    1
    29    51    54    1
    30    52    53    2
    31   133   134    1
    32   133   130    1
    33    26    27   ar
    34    27    29   ar
    35    79    78    2
    36    95    96    1
    37    89    90    1
    38    85    78   am
    39   138   137    1
    40   135   134    1
    41   135   136    1
    42   149   148    1
    43   149   152    1
    44   131   130    1
    45   131   132    2
    46    78    77    1
    47    75    74    1
    48    76    77    1
    49    31    29   ar
    50   104   103    2
    51    97    96    1
    52    97   101   am
    53    74    71    1
    54   115   114    1
    55   115   116    1
    56   114   109   am
    57   130   129    1
    58   100    99    1
    59    58    64   am
    60    58    59    2
    61    54    55    1
    62    64    65    1
    63    96    99    1
    64   103   102    1
    65   103   107   am
    66   108   109    1
    67   108   107    1
    68   108   111    1
    69    77    80    1
    70   137   136    2
    71   137   139    1
    72   109   110    2
    73    90    92   ar
    74    90    91   ar
    75   152   153    1
    76   102   101    1
    77   102   105    1
    78    92    94   ar
    79   129   120   am
    80    67    66    2
    81    13    12    2
    82   116   117    2
    83   116   118   am
    84   112   111    1
    85    66    65    1
    86    66    70   am
    87    69    68    1
    88   111   113    1
    89    71    70    1
    90    71    72    1
    91    65    68    1
    92   118   119    1
    93    80    81    1
    94   105   106    1
    95    91    93   ar
    96   153   154    1
    97   120   121    2
    98   120   119    1
    99    73    72    2
   100    94    93   ar
   101    84    83    1
   102    12    11    1
   103    32    33    1
   104   119   122    1
   105    48    46   ar
   106    48    49   ar
   107   154   155    1
   108    81    82    1
   109    82    83    1
   110   122   123    1
   111    14    11    1
   112    14    15    1
   113    46    45   ar
   114    16    15    1
   115    11    10    1
   116    33    34    1
   117    33    36    1
   118    40    41    1
   119    40    34   am
   120    49    47   ar
   121   155   156    1
   122    15    17    1
   123    41    42    1
   124    41    44    1
   125    34    35    2
   126     4     3    2
   127    45    47   ar
   128    45    44    1
   129    36    37    1
   130   123   124    1
   131    42    43    2
   132    10     3   am
   133     3     2    1
   134    37    39   am
   135    37    38    2
   136   147   145    1
   137   124   125    1
   138   146   144    1
   139     9     7   ar
   140   143   142    2
   141   144   145    1
   142   144   141    1
   143   125   126    2
   144     2     5    1
   145     2     1    1
   146     6     7    1
   147     6     5    1
   148     7     8   ar
   149   142   141    1
   150   126   128    1
   151   126   127    1
   152   141   140    1
