@<TRIPOS>MOLECULE
tmp/1jq8A00.pdb
 193 191 0 0 0
SMALL
GASTEIGER

@<TRIPOS>ATOM
      1  N         16.8900   12.5540   41.9730 N.3     1  SER1       -0.1202
      2  CA        17.3260   13.8030   41.2850 C.3     1  SER1        0.2020
      3  C         16.1710   14.7970   41.2840 C.2     1  SER1        0.2619
      4  O         15.1160   14.5390   41.8710 O.2     1  SER1       -0.2717
      5  CB        17.7330   13.4960   39.8420 C.3     1  SER1        0.2103
      6  OG        16.6030   13.0970   39.0720 O.3     1  SER1       -0.2182
      7  N         16.3890   15.9360   40.6330 N.am    2  LEU2       -0.1965
      8  CA        15.3930   16.9920   40.5460 C.3     2  LEU2        0.1728
      9  C         14.0640   16.4650   40.0140 C.2     2  LEU2        0.2616
     10  O         12.9990   17.0080   40.3230 O.2     2  LEU2       -0.2715
     11  CB        15.9120   18.1240   39.6470 C.3     2  LEU2        0.0311
     12  CG        17.0300   19.0290   40.1910 C.3     2  LEU2        0.0022
     13  CD1       18.1790   18.1930   40.7210 C.3     2  LEU2        0.0001
     14  CD2       17.5080   19.9800   39.1050 C.3     2  LEU2        0.0001
     15  N         14.1390   15.4010   39.2150 N.am    3  LEU3       -0.1977
     16  CA        12.9650   14.7610   38.6230 C.3     3  LEU3        0.1596
     17  C         12.0110   14.1760   39.6800 C.2     3  LEU3        0.2287
     18  O         10.8170   14.4730   39.6610 O.2     3  LEU3       -0.2864
     19  CB        13.4300   13.6760   37.6400 C.3     3  LEU3        0.0297
     20  CG        12.4380   12.6250   37.1310 C.3     3  LEU3        0.0022
     21  CD1       11.1510   13.2800   36.6690 C.3     3  LEU3        0.0001
     22  CD2       13.0850   11.8460   35.9940 C.3     3  LEU3        0.0001
     23  N         12.1270   14.6570   43.1000 N.3     5  PHE5       -0.1227
     24  CA        11.8210   15.7060   44.0710 C.3     5  PHE5        0.1736
     25  C         10.7070   16.6060   43.5530 C.2     5  PHE5        0.2596
     26  O          9.7970   16.9860   44.2960 O.2     5  PHE5       -0.2718
     27  CB        13.0850   16.5320   44.3550 C.3     5  PHE5        0.0547
     28  CG        12.9120   17.5900   45.4220 C.ar    5  PHE5       -0.0202
     29  CD1       11.9650   17.4510   46.4260 C.ar    5  PHE5       -0.0042
     30  CD2       13.7410   18.7050   45.4370 C.ar    5  PHE5       -0.0042
     31  CE1       11.8450   18.4090   47.4320 C.ar    5  PHE5       -0.0003
     32  CE2       13.6340   19.6740   46.4350 C.ar    5  PHE5       -0.0003
     33  CZ        12.6860   19.5280   47.4350 C.ar    5  PHE5       -0.0000
     34  N         10.7730   16.9390   42.2710 N.am    6  GLY6       -0.1942
     35  CA         9.7470   17.7810   41.6910 C.3     6  GLY6        0.2014
     36  C          8.3800   17.1280   41.6710 C.2     6  GLY6        0.2638
     37  O          7.3530   17.7990   41.8220 O.2     6  GLY6       -0.2714
     38  N          8.3650   15.8160   41.4650 N.am    7  LYS7       -0.1977
     39  CA         7.1240   15.0490   41.4370 C.3     7  LYS7        0.1596
     40  C          6.5120   15.0960   42.8320 C.2     7  LYS7        0.2287
     41  O          5.3030   15.2700   42.9870 O.2     7  LYS7       -0.2864
     42  CB         7.4200   13.6010   41.0330 C.3     7  LYS7        0.0298
     43  CG         6.2270   12.6580   41.0470 C.3     7  LYS7        0.0038
     44  CD         6.6790   11.2320   40.7260 C.3     7  LYS7        0.0206
     45  CE         5.5170   10.2430   40.7030 C.3     7  LYS7        0.1093
     46  NZ         5.9950    8.8330   40.5550 N.3     7  LYS7       -0.1314
     47  N          7.0390   17.3840   45.1380 N.3     9  ILE9       -0.1231
     48  CA         6.5840   18.7390   45.4080 C.3     9  ILE9        0.1692
     49  C          5.1950   18.9610   44.8140 C.2     9  ILE9        0.2591
     50  O          4.3160   19.5280   45.4660 O.2     9  ILE9       -0.2718
     51  CB         7.5810   19.7820   44.8420 C.3     9  ILE9        0.0266
     52  CG1        8.9310   19.6450   45.5620 C.3     9  ILE9        0.0019
     53  CG2        7.0310   21.1890   45.0230 C.3     9  ILE9        0.0020
     54  CD1       10.0190   20.5630   45.0450 C.3     9  ILE9        0.0001
     55  N          4.9890   18.5120   43.5810 N.am   10  LEU10      -0.1980
     56  CA         3.6870   18.6800   42.9520 C.3    10  LEU10       0.1596
     57  C          2.6220   17.9010   43.7230 C.2    10  LEU10       0.2287
     58  O          1.5580   18.4320   44.0320 O.2    10  LEU10      -0.2864
     59  CB         3.7280   18.2030   41.4970 C.3    10  LEU10       0.0297
     60  CG         2.3840   18.2680   40.7640 C.3    10  LEU10       0.0022
     61  CD1        1.8540   19.6940   40.7830 C.3    10  LEU10       0.0001
     62  CD2        2.5550   17.7820   39.3380 C.3    10  LEU10       0.0001
     63  N          3.7970   23.3320   40.7270 N.3    16  LEU16      -0.1231
     64  CA         4.9160   22.7980   39.9530 C.3    16  LEU16       0.1693
     65  C          6.1680   23.3490   40.6330 C.2    16  LEU16       0.2592
     66  O          6.2700   24.5560   40.8420 O.2    16  LEU16      -0.2718
     67  CB         4.8450   23.2890   38.5030 C.3    16  LEU16       0.0284
     68  CG         3.8070   22.6700   37.5560 C.3    16  LEU16       0.0019
     69  CD1        4.1600   21.2120   37.2990 C.3    16  LEU16       0.0001
     70  CD2        2.4150   22.7920   38.1470 C.3    16  LEU16       0.0001
     71  N          7.1100   22.4800   40.9920 N.am   17  ALA17      -0.1966
     72  CA         8.3150   22.9390   41.6720 C.3    17  ALA17       0.1728
     73  C          8.9750   24.0910   40.9260 C.2    17  ALA17       0.2616
     74  O          9.4500   25.0490   41.5370 O.2    17  ALA17      -0.2715
     75  CB         9.2790   21.7980   41.8520 C.3    17  ALA17       0.0334
     76  N          9.0050   23.9930   39.6030 N.am   18  ILE18      -0.1977
     77  CA         9.5490   25.0490   38.7630 C.3    18  ILE18       0.1596
     78  C          8.2870   25.5640   38.0840 C.2    18  ILE18       0.2287
     79  O          7.5420   24.7780   37.4930 O.2    18  ILE18      -0.2864
     80  CB        10.5370   24.4910   37.7050 C.3    18  ILE18       0.0276
     81  CG1       11.7120   23.8010   38.4050 C.3    18  ILE18       0.0022
     82  CG2       11.0560   25.6160   36.8220 C.3    18  ILE18       0.0022
     83  CD1       12.6650   23.0610   37.4820 C.3    18  ILE18       0.0001
     84  N          8.8810   27.0490   43.2840 N.3    21  TYR21      -0.1227
     85  CA         9.9100   26.9590   44.3220 C.3    21  TYR21       0.1736
     86  C         11.3470   27.0030   43.8030 C.2    21  TYR21       0.2596
     87  O         12.2700   26.6150   44.5230 O.2    21  TYR21      -0.2718
     88  CB         9.7330   25.6580   45.1090 C.3    21  TYR21       0.0548
     89  CG         8.4570   25.5790   45.9070 C.ar   21  TYR21      -0.0200
     90  CD1        8.3620   26.1740   47.1670 C.ar   21  TYR21      -0.0009
     91  CD2        7.3400   24.9090   45.4050 C.ar   21  TYR21      -0.0009
     92  CE1        7.1880   26.1040   47.9070 C.ar   21  TYR21       0.0417
     93  CE2        6.1520   24.8330   46.1430 C.ar   21  TYR21       0.0417
     94  CZ         6.0860   25.4340   47.3910 C.ar   21  TYR21       0.1957
     95  OH         4.9130   25.3810   48.1190 O.3    21  TYR21      -0.2866
     96  N         11.5510   27.4650   42.5730 N.am   22  SER22      -0.1952
     97  CA        12.9000   27.4930   42.0120 C.3    22  SER22       0.1924
     98  C         13.6380   28.8310   42.1000 C.2    22  SER22       0.2314
     99  O         14.8250   28.9040   41.7890 O.2    22  SER22      -0.2863
    100  CB        12.8710   26.9930   40.5590 C.3    22  SER22       0.2116
    101  OG        11.9230   27.7060   39.7790 O.3    22  SER22      -0.2180
    102  N         17.1020   30.5620   49.7770 N.3    27  TYR27      -0.1227
    103  CA        17.5760   29.1850   49.6580 C.3    27  TYR27       0.1736
    104  C         16.8800   28.2400   48.6930 C.2    27  TYR27       0.2596
    105  O         17.3820   27.1450   48.4550 O.2    27  TYR27      -0.2718
    106  CB        17.6160   28.5360   51.0470 C.3    27  TYR27       0.0548
    107  CG        18.6360   29.1660   51.9670 C.ar   27  TYR27      -0.0200
    108  CD1       18.3260   30.3040   52.7090 C.ar   27  TYR27      -0.0009
    109  CD2       19.9330   28.6580   52.0460 C.ar   27  TYR27      -0.0009
    110  CE1       19.2840   30.9260   53.5040 C.ar   27  TYR27       0.0417
    111  CE2       20.8960   29.2700   52.8370 C.ar   27  TYR27       0.0417
    112  CZ        20.5640   30.4050   53.5620 C.ar   27  TYR27       0.1957
    113  OH        21.5160   31.0090   54.3460 O.3    27  TYR27      -0.2866
    114  N         15.7360   28.6430   48.1460 N.am   28  CYS28      -0.1956
    115  CA        15.0220   27.7940   47.1930 C.3    28  CYS28       0.1843
    116  C         15.5010   28.1400   45.7870 C.2    28  CYS28       0.2626
    117  O         14.8230   28.8370   45.0280 O.2    28  CYS28      -0.2714
    118  CB        13.5100   28.0050   47.2870 C.3    28  CYS28       0.0997
    119  SG        12.7510   27.6210   48.8970 S.3    28  CYS28      -0.0797
    120  N         16.6860   27.6480   45.4590 N.am   29  GLY29      -0.1940
    121  CA        17.2870   27.9030   44.1650 C.3    29  GLY29       0.2014
    122  C         18.7130   27.4030   44.2720 C.2    29  GLY29       0.2638
    123  O         18.9550   26.3940   44.9350 O.2    29  GLY29      -0.2714
    124  N         19.6590   28.0960   43.6470 N.am   30  TRP30      -0.1973
    125  CA        21.0540   27.6750   43.7140 C.3    30  TRP30       0.1640
    126  C         21.7920   28.4140   44.8260 C.2    30  TRP30       0.2290
    127  O         22.7770   27.9120   45.3700 O.2    30  TRP30      -0.2864
    128  CB        21.7620   27.9190   42.3750 C.3    30  TRP30       0.0576
    129  CG        21.0810   27.2830   41.1910 C.ar   30  TRP30       0.0006
    130  CD1       20.1030   27.8370   40.4130 C.ar   30  TRP30       0.0946
    131  CD2       21.3190   25.9690   40.6560 C.ar   30  TRP30       0.0152
    132  NE1       19.7200   26.9560   39.4290 N.ar   30  TRP30      -0.2442
    133  CE2       20.4480   25.8020   39.5540 C.ar   30  TRP30       0.0810
    134  CE3       22.1830   24.9190   41.0010 C.ar   30  TRP30       0.0012
    135  CZ2       20.4160   24.6270   38.7910 C.ar   30  TRP30       0.0191
    136  CZ3       22.1510   23.7460   40.2390 C.ar   30  TRP30       0.0001
    137  CH2       21.2710   23.6140   39.1480 C.ar   30  TRP30       0.0015
    138  N         13.8290   25.0090   52.4150 N.3    44  CYS44      -0.1235
    139  CA        14.9180   24.8390   51.4640 C.3    44  CYS44       0.1677
    140  C         16.2580   24.8410   52.1880 C.2    44  CYS44       0.2270
    141  O         17.1630   24.0820   51.8300 O.2    44  CYS44      -0.2867
    142  CB        14.8550   25.9210   50.3660 C.3    44  CYS44       0.0956
    143  SG        13.3710   25.7270   49.3040 S.3    44  CYS44      -0.0801
    144  N         16.7760   21.5590   53.5510 N.3    47  HIS47      -0.1226
    145  CA        17.0120   20.6360   52.4480 C.3    47  HIS47       0.1752
    146  C         18.4720   20.7110   52.0050 C.2    47  HIS47       0.2596
    147  O         19.0890   19.6840   51.7210 O.2    47  HIS47      -0.2718
    148  CB        16.0780   20.9500   51.2750 C.3    47  HIS47       0.0759
    149  CG        16.0580   19.8870   50.2170 C.ar   47  HIS47       0.0818
    150  ND1       16.6350   20.0580   48.9770 N.ar   47  HIS47      -0.2268
    151  CD2       15.5390   18.6350   50.2200 C.ar   47  HIS47       0.1154
    152  CE1       16.4740   18.9580   48.2630 C.ar   47  HIS47       0.1986
    153  NE2       15.8120   18.0780   48.9930 N.ar   47  HIS47      -0.2212
    154  N         19.0310   21.9180   51.9550 N.am   48  ASP48      -0.1974
    155  CA        20.4340   22.0740   51.5660 C.3    48  ASP48       0.1709
    156  C         21.3210   21.3810   52.5960 C.2    48  ASP48       0.2293
    157  O         22.2800   20.6900   52.2490 O.2    48  ASP48      -0.2864
    158  CB        20.8340   23.5520   51.4820 C.3    48  ASP48       0.1436
    159  CG        20.1330   24.2920   50.3510 C.2    48  ASP48       0.3671
    160  OD1       19.8820   23.6860   49.2890 O.co2  48  ASP48      -0.2456
    161  OD2       19.8500   25.4950   50.5220 O.co2  48  ASP48      -0.2456
    162  N         21.1760   17.4850   52.0330 N.3    51  TYR51      -0.1241
    163  CA        22.0020   17.1240   50.8710 C.3    51  TYR51       0.1605
    164  C         23.4680   17.3700   51.1930 C.2    51  TYR51       0.2264
    165  O         24.3510   16.6680   50.7030 O.2    51  TYR51      -0.2867
    166  CB        21.6520   18.0010   49.6660 C.3    51  TYR51       0.0534
    167  CG        20.5450   17.5000   48.7670 C.ar   51  TYR51      -0.0201
    168  CD1       19.6240   16.5500   49.2050 C.ar   51  TYR51      -0.0009
    169  CD2       20.4070   18.0050   47.4750 C.ar   51  TYR51      -0.0009
    170  CE1       18.5940   16.1140   48.3740 C.ar   51  TYR51       0.0417
    171  CE2       19.3820   17.5780   46.6400 C.ar   51  TYR51       0.0417
    172  CZ        18.4810   16.6340   47.0950 C.ar   51  TYR51       0.1957
    173  OH        17.4690   16.2140   46.2690 O.3    51  TYR51      -0.2866
    174  N         21.4090   15.6080   43.3230 N.3    60  LYS60      -0.1245
    175  CA        20.7490   16.1070   42.1220 C.3    60  LYS60       0.1561
    176  C         20.7040   15.2110   40.8920 C.2    60  LYS60       0.2260
    177  O         19.9040   15.4570   39.9880 O.2    60  LYS60      -0.2867
    178  CB        21.3520   17.4540   41.7170 C.3    60  LYS60       0.0271
    179  CG        21.1570   18.5670   42.7380 C.3    60  LYS60       0.0035
    180  CD        22.3950   18.7830   43.5970 C.3    60  LYS60       0.0206
    181  CE        23.5370   19.4130   42.8000 C.3    60  LYS60       0.1093
    182  NZ        24.0320   18.5270   41.7080 N.3    60  LYS60      -0.1314
    183  N          7.1020   21.9580   52.6630 N.3    96  PHE96      -0.1241
    184  CA         6.4850   22.9430   51.7770 C.3    96  PHE96       0.1605
    185  C          4.9630   22.9670   51.9400 C.2    96  PHE96       0.2264
    186  O          4.3530   24.0390   51.9690 O.2    96  PHE96      -0.2867
    187  CB         6.8080   22.6440   50.3030 C.3    96  PHE96       0.0534
    188  CG         8.2590   22.8660   49.9140 C.ar   96  PHE96      -0.0203
    189  CD1        9.0200   23.8770   50.5010 C.ar   96  PHE96      -0.0042
    190  CD2        8.8380   22.0970   48.9050 C.ar   96  PHE96      -0.0042
    191  CE1       10.3280   24.1170   50.0860 C.ar   96  PHE96      -0.0003
    192  CE2       10.1460   22.3310   48.4820 C.ar   96  PHE96      -0.0003
    193  CZ        10.8920   23.3410   49.0720 C.ar   96  PHE96      -0.0000
@<TRIPOS>BOND
     1    22    20    1
     2    21    20    1
     3    82    80    1
     4    20    19    1
     5    69    68    1
     6    83    81    1
     7    79    78    2
     8    68    70    1
     9    68    67    1
    10    19    16    1
    11    80    81    1
    12    80    77    1
    13    78    77    1
    14    67    64    1
    15    16    15    1
    16    16    17    1
    17    77    76    1
    18   135   137   ar
    19   135   133   ar
    20     6     5    1
    21    14    12    1
    22   137   136   ar
    23    15     9   am
    24    62    60    1
    25   132   133   ar
    26   132   130   ar
    27   133   131   ar
    28    76    73   am
    29    11    12    1
    30    11     8    1
    31    18    17    2
    32   101   100    1
    33     5     2    1
    34    64    65    1
    35    64    63    1
    36   177   176    2
    37     9    10    2
    38     9     8    1
    39    12    13    1
    40   136   134   ar
    41   130   129   ar
    42     8     7    1
    43    46    45    1
    44   100    97    1
    45    65    66    2
    46    65    71   am
    47     7     3   am
    48   131   134   ar
    49   131   129   ar
    50    45    44    1
    51    44    43    1
    52    60    61    1
    53    60    59    1
    54   176   175    1
    55    73    74    2
    56    73    72    1
    57    71    72    1
    58    42    43    1
    59    42    39    1
    60   129   128    1
    61     3     2    1
    62     3     4    2
    63     2     1    1
    64    39    38    1
    65    39    40    1
    66    38    36   am
    67    59    56    1
    68    36    35    1
    69    36    37    2
    70    72    75    1
    71    35    34    1
    72   182   181    1
    73   178   175    1
    74   178   179    1
    75    99    98    2
    76    97    98    1
    77    97    96    1
    78   175   174    1
    79    34    25   am
    80   128   125    1
    81    96    86   am
    82   179   180    1
    83   181   180    1
    84    40    41    2
    85    56    55    1
    86    56    57    1
    87    23    24    1
    88    84    85    1
    89    25    24    1
    90    25    26    2
    91    55    49   am
    92   124   125    1
    93   124   122   am
    94   125   126    1
    95    57    58    2
    96    86    85    1
    97    86    87    2
    98    24    27    1
    99   121   122    1
   100   121   120    1
   101   122   123    2
   102    85    88    1
   103    27    28    1
   104    49    48    1
   105    49    50    2
   106   126   127    2
   107    51    53    1
   108    51    48    1
   109    51    52    1
   110   117   116    2
   111    54    52    1
   112    88    89    1
   113    47    48    1
   114    91    89   ar
   115    91    93   ar
   116    28    30   ar
   117    28    29   ar
   118    30    32   ar
   119   120   116   am
   120   116   115    1
   121    89    90   ar
   122    93    94   ar
   123   173   172    1
   124    29    31   ar
   125    32    33   ar
   126   171   172   ar
   127   171   169   ar
   128   172   170   ar
   129    90    92   ar
   130   115   118    1
   131   115   114    1
   132   118   119    1
   133    94    92   ar
   134    94    95    1
   135    31    33   ar
   136   169   167   ar
   137   114   104   am
   138   152   150   ar
   139   152   153   ar
   140   170   168   ar
   141   105   104    2
   142   192   190   ar
   143   192   193   ar
   144   104   103    1
   145   167   168   ar
   146   167   166    1
   147   119   143    1
   148   190   188   ar
   149   150   149   ar
   150   153   151   ar
   151   193   191   ar
   152   160   159   ar
   153   143   142    1
   154   103   102    1
   155   103   106    1
   156   166   163    1
   157   188   187    1
   158   188   189   ar
   159   191   189   ar
   160   149   151   ar
   161   149   148    1
   162   187   184    1
   163   159   161   ar
   164   159   158    1
   165   142   139    1
   166   165   164    2
   167   163   164    1
   168   163   162    1
   169   106   107    1
   170   148   145    1
   171   139   140    1
   172   139   138    1
   173   158   155    1
   174   155   154    1
   175   155   156    1
   176   147   146    2
   177   184   185    1
   178   184   183    1
   179   141   140    2
   180   185   186    2
   181   154   146   am
   182   107   109   ar
   183   107   108   ar
   184   146   145    1
   185   109   111   ar
   186   157   156    2
   187   145   144    1
   188   108   110   ar
   189   111   112   ar
   190   110   112   ar
   191   112   113    1
