@<TRIPOS>MOLECULE
tmp/1jqdB01.pdb
 147 144 0 0 0
SMALL
GASTEIGER

@<TRIPOS>ATOM
      1  N         59.1060  -10.2300   39.4790 N.3    11  TYR11      -0.1241
      2  CA        58.2810   -9.9290   38.3180 C.3    11  TYR11       0.1605
      3  C         58.3840   -8.4490   37.9410 C.2    11  TYR11       0.2264
      4  O         58.6660   -8.1070   36.7890 O.2    11  TYR11      -0.2867
      5  CB        56.8270  -10.2870   38.6150 C.3    11  TYR11       0.0534
      6  CG        55.9380  -10.1640   37.4090 C.ar   11  TYR11      -0.0201
      7  CD1       56.0940  -11.0240   36.3240 C.ar   11  TYR11      -0.0009
      8  CD2       54.9800   -9.1570   37.3260 C.ar   11  TYR11      -0.0009
      9  CE1       55.3270  -10.8820   35.1850 C.ar   11  TYR11       0.0417
     10  CE2       54.2050   -9.0070   36.1860 C.ar   11  TYR11       0.0417
     11  CZ        54.3870   -9.8720   35.1200 C.ar   11  TYR11       0.1957
     12  OH        53.6470   -9.7220   33.9760 O.3    11  TYR11      -0.2866
     13  N         59.7920   -7.2280   34.2470 N.3    15  PHE15      -0.1241
     14  CA        58.8850   -6.4630   33.4040 C.3    15  PHE15       0.1605
     15  C         59.5160   -5.1220   33.0470 C.2    15  PHE15       0.2264
     16  O         59.3890   -4.6460   31.9130 O.2    15  PHE15      -0.2867
     17  CB        57.5650   -6.2160   34.1330 C.3    15  PHE15       0.0534
     18  CG        56.5600   -5.4770   33.3100 C.ar   15  PHE15      -0.0203
     19  CD1       55.7320   -6.1580   32.4280 C.ar   15  PHE15      -0.0042
     20  CD2       56.4580   -4.0900   33.3960 C.ar   15  PHE15      -0.0042
     21  CE1       54.8140   -5.4760   31.6420 C.ar   15  PHE15      -0.0003
     22  CE2       55.5420   -3.3920   32.6130 C.ar   15  PHE15      -0.0003
     23  CZ        54.7170   -4.0860   31.7330 C.ar   15  PHE15      -0.0000
     24  N         61.6920   -5.5520   30.4720 N.3    18  PHE18      -0.1241
     25  CA        60.8420   -5.8580   29.3310 C.3    18  PHE18       0.1605
     26  C         60.5040   -4.5880   28.5550 C.2    18  PHE18       0.2264
     27  O         60.7170   -4.5210   27.3440 O.2    18  PHE18      -0.2867
     28  CB        59.5610   -6.5490   29.8000 C.3    18  PHE18       0.0534
     29  CG        58.5060   -6.6520   28.7380 C.ar   18  PHE18      -0.0203
     30  CD1       58.7800   -7.2640   27.5160 C.ar   18  PHE18      -0.0042
     31  CD2       57.2450   -6.1060   28.9450 C.ar   18  PHE18      -0.0042
     32  CE1       57.8090   -7.3260   26.5170 C.ar   18  PHE18      -0.0003
     33  CE2       56.2700   -6.1630   27.9540 C.ar   18  PHE18      -0.0003
     34  CZ        56.5530   -6.7730   26.7380 C.ar   18  PHE18      -0.0000
     35  N         57.0990   -2.1950   22.9510 N.3    24  GLU24      -0.1245
     36  CA        55.7420   -2.3130   23.4630 C.3    24  GLU24       0.1567
     37  C         54.9990   -0.9840   23.4780 C.2    24  GLU24       0.2260
     38  O         54.0910   -0.7660   22.6750 O.2    24  GLU24      -0.2867
     39  CB        55.7510   -2.9080   24.8770 C.3    24  GLU24       0.0388
     40  CG        54.3620   -3.0540   25.4880 C.3    24  GLU24       0.1160
     41  CD        53.8110   -4.4700   25.4010 C.2    24  GLU24       0.3649
     42  OE1       54.1550   -5.1890   24.4430 O.co2  24  GLU24      -0.2457
     43  OE2       53.0220   -4.8550   26.2890 O.co2  24  GLU24      -0.2457
     44  N         46.3690   -5.4550   27.8500 N.3   139  GLN139     -0.1245
     45  CA        47.3520   -6.4130   28.3500 C.3   139  GLN139      0.1566
     46  C         47.0050   -6.9560   29.7230 C.2   139  GLN139      0.2260
     47  O         47.8870   -7.1180   30.5570 O.2   139  GLN139     -0.2867
     48  CB        48.7390   -5.7560   28.4170 C.3   139  GLN139      0.0367
     49  CG        49.3650   -5.4880   27.0590 C.3   139  GLN139      0.0905
     50  CD        49.7670   -6.7850   26.3480 C.2   139  GLN139      0.2608
     51  OE1       48.9390   -7.6760   26.1900 O.2   139  GLN139     -0.2717
     52  NE2       51.0190   -6.8890   25.9210 N.am  139  GLN139     -0.0878
     53  N         44.9280  -11.8080   30.4400 N.3   142  TYR142     -0.1227
     54  CA        45.6300  -13.0240   30.8550 C.3   142  TYR142      0.1736
     55  C         45.3280  -13.3070   32.3210 C.2   142  TYR142      0.2595
     56  O         45.5030  -14.4280   32.7880 O.2   142  TYR142     -0.2718
     57  CB        47.1510  -12.8720   30.7170 C.3   142  TYR142      0.0548
     58  CG        47.6050  -12.1820   29.4560 C.ar  142  TYR142     -0.0200
     59  CD1       47.9510  -10.8330   29.4700 C.ar  142  TYR142     -0.0009
     60  CD2       47.6680  -12.8700   28.2420 C.ar  142  TYR142     -0.0009
     61  CE1       48.3580  -10.1840   28.3050 C.ar  142  TYR142      0.0417
     62  CE2       48.0660  -12.2300   27.0740 C.ar  142  TYR142      0.0417
     63  CZ        48.4120  -10.8840   27.1130 C.ar  142  TYR142      0.1957
     64  OH        48.8350  -10.2480   25.9670 O.3   142  TYR142     -0.2866
     65  N         44.8590  -12.2930   33.0410 N.am  143  TYR143     -0.1976
     66  CA        44.5980  -12.4490   34.4680 C.3   143  TYR143      0.1639
     67  C         43.1460  -12.5370   34.8720 C.2   143  TYR143      0.2290
     68  O         42.8200  -12.4210   36.0510 O.2   143  TYR143     -0.2864
     69  CB        45.2830  -11.3190   35.2320 C.3   143  TYR143      0.0560
     70  CG        46.6550  -11.0250   34.6820 C.ar  143  TYR143     -0.0198
     71  CD1       46.9150   -9.8330   34.0150 C.ar  143  TYR143     -0.0009
     72  CD2       47.6820  -11.9720   34.7630 C.ar  143  TYR143     -0.0009
     73  CE1       48.1550   -9.5850   33.4380 C.ar  143  TYR143      0.0417
     74  CE2       48.9340  -11.7300   34.1900 C.ar  143  TYR143      0.0417
     75  CZ        49.1580  -10.5350   33.5240 C.ar  143  TYR143      0.1957
     76  OH        50.3680  -10.2850   32.9230 O.3   143  TYR143     -0.2866
     77  N         48.5760  -10.1420   23.1330 N.3   169  VAL169     -0.1245
     78  CA        49.5840  -10.5010   22.1360 C.3   169  VAL169      0.1561
     79  C         48.9060  -11.1630   20.9550 C.2   169  VAL169      0.2260
     80  O         47.8730  -11.8090   21.1110 O.2   169  VAL169     -0.2867
     81  CB        50.6370  -11.4560   22.7100 C.3   169  VAL169      0.0252
     82  CG1       51.4680  -10.7270   23.7600 C.3   169  VAL169      0.0019
     83  CG2       49.9640  -12.6810   23.3010 C.3   169  VAL169      0.0019
     84  N         55.1530  -15.1820   21.1910 N.3   175  TRP175     -0.1241
     85  CA        54.5550  -15.6750   22.4320 C.3   175  TRP175      0.1605
     86  C         53.6380  -16.8540   22.1590 C.2   175  TRP175      0.2264
     87  O         53.5970  -17.8170   22.9250 O.2   175  TRP175     -0.2867
     88  CB        53.7240  -14.5870   23.1100 C.3   175  TRP175      0.0550
     89  CG        54.5060  -13.3950   23.5350 C.ar  175  TRP175      0.0003
     90  CD1       54.5340  -12.1760   22.9290 C.ar  175  TRP175      0.0946
     91  CD2       55.4100  -13.3170   24.6420 C.ar  175  TRP175      0.0152
     92  NE1       55.4060  -11.3430   23.5890 N.ar  175  TRP175     -0.2442
     93  CE2       55.9550  -12.0190   24.6430 C.ar  175  TRP175      0.0810
     94  CE3       55.8140  -14.2210   25.6320 C.ar  175  TRP175      0.0012
     95  CZ2       56.8880  -11.6000   25.5970 C.ar  175  TRP175      0.0191
     96  CZ3       56.7410  -13.8030   26.5790 C.ar  175  TRP175      0.0001
     97  CH2       57.2670  -12.5040   26.5520 C.ar  175  TRP175      0.0015
     98  N         54.3260  -20.3350   23.8240 N.3   179  TRP179     -0.1241
     99  CA        53.3740  -20.9460   24.7440 C.3   179  TRP179      0.1605
    100  C         52.8910  -22.3120   24.2900 C.2   179  TRP179      0.2264
    101  O         52.5970  -23.1750   25.1190 O.2   179  TRP179     -0.2867
    102  CB        52.1690  -20.0270   24.9730 C.3   179  TRP179      0.0550
    103  CG        52.5200  -18.7620   25.6820 C.ar  179  TRP179      0.0003
    104  CD1       53.5970  -18.5530   26.4930 C.ar  179  TRP179      0.0946
    105  CD2       51.7950  -17.5320   25.6560 C.ar  179  TRP179      0.0152
    106  NE1       53.5900  -17.2690   26.9720 N.ar  179  TRP179     -0.2442
    107  CE2       52.4940  -16.6170   26.4750 C.ar  179  TRP179      0.0810
    108  CE3       50.6210  -17.1100   25.0220 C.ar  179  TRP179      0.0012
    109  CZ2       52.0570  -15.3020   26.6770 C.ar  179  TRP179      0.0191
    110  CZ3       50.1840  -15.7970   25.2260 C.ar  179  TRP179      0.0001
    111  CH2       50.9010  -14.9130   26.0450 C.ar  179  TRP179      0.0015
    112  N         61.3620  -13.3140   32.2890 N.3   239  PHE239     -0.1241
    113  CA        60.1170  -12.7960   31.7410 C.3   239  PHE239      0.1605
    114  C         59.5480  -13.7140   30.6580 C.2   239  PHE239      0.2264
    115  O         58.3860  -14.0990   30.7220 O.2   239  PHE239     -0.2867
    116  CB        60.3230  -11.3910   31.1690 C.3   239  PHE239      0.0534
    117  CG        59.0480  -10.7290   30.7360 C.ar  239  PHE239     -0.0203
    118  CD1       58.0920  -10.3540   31.6770 C.ar  239  PHE239     -0.0042
    119  CD2       58.7830  -10.5120   29.3900 C.ar  239  PHE239     -0.0042
    120  CE1       56.8860   -9.7780   31.2800 C.ar  239  PHE239     -0.0003
    121  CE2       57.5780   -9.9360   28.9830 C.ar  239  PHE239     -0.0003
    122  CZ        56.6290   -9.5690   29.9310 C.ar  239  PHE239     -0.0000
    123  N         58.4460  -16.7330   32.4130 N.3   242  GLU242     -0.1245
    124  CA        57.5780  -16.4860   33.5580 C.3   242  GLU242      0.1567
    125  C         58.0220  -17.3770   34.7180 C.2   242  GLU242      0.2260
    126  O         57.2160  -18.0780   35.3290 O.2   242  GLU242     -0.2867
    127  CB        56.1120  -16.7700   33.1960 C.3   242  GLU242      0.0388
    128  CG        55.5950  -15.9580   31.9800 C.3   242  GLU242      0.1160
    129  CD        54.1950  -16.2230   31.5140 C.2   242  GLU242      0.3649
    130  OE1       53.4950  -17.1190   31.9000 O.co2 242  GLU242     -0.2457
    131  OE2       53.7740  -15.4250   30.6590 O.co2 242  GLU242     -0.2457
    132  N         57.0110   -9.6540   19.2310 N.3   279  ASN279     -0.1240
    133  CA        56.0900   -9.2170   20.2710 C.3   279  ASN279      0.1653
    134  C         54.8470   -8.5510   19.6710 C.2   279  ASN279      0.2266
    135  O         54.2260   -7.6850   20.2890 O.2   279  ASN279     -0.2867
    136  CB        56.8170   -8.2400   21.1970 C.3   279  ASN279      0.1155
    137  CG        55.9850   -7.8490   22.3950 C.2   279  ASN279      0.2627
    138  OD1       55.5650   -8.7000   23.1730 O.2   279  ASN279     -0.2716
    139  ND2       55.7430   -6.5500   22.5520 N.am  279  ASN279     -0.0877
    140  N         51.4530   -7.1930   18.6530 N.3   281  LEU281     -0.1245
    141  CA        50.2600   -6.9880   19.4520 C.3   281  LEU281      0.1561
    142  C         49.0230   -6.9030   18.5660 C.2   281  LEU281      0.2260
    143  O         49.1080   -6.5250   17.3920 O.2   281  LEU281     -0.2867
    144  CB        50.4010   -5.6980   20.2630 C.3   281  LEU281      0.0270
    145  CG        51.6780   -5.5480   21.0990 C.3   281  LEU281      0.0019
    146  CD1       51.7120   -4.1580   21.7110 C.3   281  LEU281      0.0001
    147  CD2       51.7380   -6.6230   22.1860 C.3   281  LEU281      0.0001
@<TRIPOS>BOND
     1   143   142    2
     2   142   141    1
     3   140   141    1
     4   132   133    1
     5   141   144    1
     6   134   133    1
     7   134   135    2
     8   144   145    1
     9   133   136    1
    10    79    80    2
    11    79    78    1
    12   145   146    1
    13   145   147    1
    14    84    85    1
    15   136   137    1
    16    78    81    1
    17    78    77    1
    18    86    85    1
    19    86    87    2
    20   137   139   am
    21   137   138    2
    22    85    88    1
    23    38    37    2
    24    81    83    1
    25    81    82    1
    26    90    89   ar
    27    90    92   ar
    28    35    36    1
    29    88    89    1
    30    36    37    1
    31    36    39    1
    32    89    91   ar
    33    92    93   ar
    34    98    99    1
    35   100    99    1
    36   100   101    2
    37    42    41   ar
    38    91    93   ar
    39    91    94   ar
    40    93    95   ar
    41    99   102    1
    42    39    40    1
    43   102   103    1
    44   108   110   ar
    45   108   105   ar
    46   110   111   ar
    47    41    40    1
    48    41    43   ar
    49    95    97   ar
    50    94    96   ar
    51   105   103   ar
    52   105   107   ar
    53   103   104   ar
    54    52    50   am
    55    64    63    1
    56   111   109   ar
    57    51    50    2
    58    50    49    1
    59   107   109   ar
    60   107   106   ar
    61   104   106   ar
    62    32    34   ar
    63    32    30   ar
    64    97    96   ar
    65    34    33   ar
    66    49    48    1
    67    62    63   ar
    68    62    60   ar
    69    63    61   ar
    70    27    26    2
    71    30    29   ar
    72    44    45    1
    73    33    31   ar
    74    60    58   ar
    75    61    59   ar
    76    45    48    1
    77    45    46    1
    78    26    25    1
    79    29    31   ar
    80    29    28    1
    81   121   119   ar
    82   121   122   ar
    83    25    28    1
    84    25    24    1
    85   119   117   ar
    86    58    59   ar
    87    58    57    1
    88    46    47    2
    89   122   120   ar
    90    53    54    1
    91   114   115    2
    92   114   113    1
    93   131   129   ar
    94    57    54    1
    95   117   116    1
    96   117   118   ar
    97    54    55    1
    98   116   113    1
    99   120   118   ar
   100   129   130   ar
   101   129   128    1
   102    21    23   ar
   103    21    19   ar
   104    23    22   ar
   105   113   112    1
   106    16    15    2
   107   128   127    1
   108    55    56    2
   109    55    65   am
   110   123   124    1
   111    19    18   ar
   112    22    20   ar
   113    76    75    1
   114    65    66    1
   115    15    14    1
   116   127   124    1
   117    18    20   ar
   118    18    17    1
   119    14    17    1
   120    14    13    1
   121    73    75   ar
   122    73    71   ar
   123    75    74   ar
   124   124   125    1
   125    12    11    1
   126    71    70   ar
   127    74    72   ar
   128    66    67    1
   129    66    69    1
   130    70    72   ar
   131    70    69    1
   132   125   126    2
   133    67    68    2
   134    11     9   ar
   135    11    10   ar
   136     9     7   ar
   137    10     8   ar
   138     7     6   ar
   139     4     3    2
   140     8     6   ar
   141     6     5    1
   142     3     2    1
   143     2     5    1
   144     2     1    1
