@<TRIPOS>MOLECULE
tmp/1jqdB00.pdb
 200 193 0 0 0
SMALL
GASTEIGER

@<TRIPOS>ATOM
      1  N         59.1060  -10.2300   39.4790 N.3    11  TYR11      -0.1241
      2  CA        58.2810   -9.9290   38.3180 C.3    11  TYR11       0.1605
      3  C         58.3840   -8.4490   37.9410 C.2    11  TYR11       0.2264
      4  O         58.6660   -8.1070   36.7890 O.2    11  TYR11      -0.2867
      5  CB        56.8270  -10.2870   38.6150 C.3    11  TYR11       0.0534
      6  CG        55.9380  -10.1640   37.4090 C.ar   11  TYR11      -0.0201
      7  CD1       56.0940  -11.0240   36.3240 C.ar   11  TYR11      -0.0009
      8  CD2       54.9800   -9.1570   37.3260 C.ar   11  TYR11      -0.0009
      9  CE1       55.3270  -10.8820   35.1850 C.ar   11  TYR11       0.0417
     10  CE2       54.2050   -9.0070   36.1860 C.ar   11  TYR11       0.0417
     11  CZ        54.3870   -9.8720   35.1200 C.ar   11  TYR11       0.1957
     12  OH        53.6470   -9.7220   33.9760 O.3    11  TYR11      -0.2866
     13  N         59.7920   -7.2280   34.2470 N.3    15  PHE15      -0.1241
     14  CA        58.8850   -6.4630   33.4040 C.3    15  PHE15       0.1605
     15  C         59.5160   -5.1220   33.0470 C.2    15  PHE15       0.2264
     16  O         59.3890   -4.6460   31.9130 O.2    15  PHE15      -0.2867
     17  CB        57.5650   -6.2160   34.1330 C.3    15  PHE15       0.0534
     18  CG        56.5600   -5.4770   33.3100 C.ar   15  PHE15      -0.0203
     19  CD1       55.7320   -6.1580   32.4280 C.ar   15  PHE15      -0.0042
     20  CD2       56.4580   -4.0900   33.3960 C.ar   15  PHE15      -0.0042
     21  CE1       54.8140   -5.4760   31.6420 C.ar   15  PHE15      -0.0003
     22  CE2       55.5420   -3.3920   32.6130 C.ar   15  PHE15      -0.0003
     23  CZ        54.7170   -4.0860   31.7330 C.ar   15  PHE15      -0.0000
     24  N         55.3860   -0.0920   24.3850 N.3    25  HIS25      -0.1241
     25  CA        54.7240    1.2050   24.4980 C.3    25  HIS25       0.1621
     26  C         54.8640    2.0630   23.2500 C.2    25  HIS25       0.2264
     27  O         54.0100    2.8990   22.9640 O.2    25  HIS25      -0.2867
     28  CB        55.2460    1.9610   25.7200 C.3    25  HIS25       0.0745
     29  CG        54.6420    1.4930   27.0100 C.ar   25  HIS25       0.0817
     30  ND1       54.9270    2.0910   28.2210 N.ar   25  HIS25      -0.2268
     31  CD2       53.7640    0.5020   27.2730 C.ar   25  HIS25       0.1154
     32  CE1       54.2440    1.4810   29.1750 C.ar   25  HIS25       0.1986
     33  NE2       53.5310    0.5150   28.6310 N.ar   25  HIS25      -0.2212
     34  N         52.2440    0.7410   21.0570 N.3    28  MET28      -0.1245
     35  CA        50.9590    1.2240   21.5390 C.3    28  MET28       0.1570
     36  C         50.7440    2.7140   21.2890 C.2    28  MET28       0.2261
     37  O         49.6210    3.1360   20.9960 O.2    28  MET28      -0.2867
     38  CB        50.8080    0.9030   23.0210 C.3    28  MET28       0.0387
     39  CG        50.7540   -0.5810   23.2800 C.3    28  MET28       0.0595
     40  SD        50.0090   -0.9770   24.8470 S.3    28  MET28      -0.1393
     41  CE        50.7640   -2.5960   25.1510 C.3    28  MET28       0.0692
     42  N         40.1200   -0.9740   32.7680 N.3    55  ILE55      -0.1231
     43  CA        40.1920   -2.2260   33.5130 C.3    55  ILE55       0.1692
     44  C         41.6680   -2.6390   33.5250 C.2    55  ILE55       0.2593
     45  O         42.3090   -2.6820   32.4740 O.2    55  ILE55      -0.2718
     46  CB        39.3420   -3.3290   32.8490 C.3    55  ILE55       0.0266
     47  CG1       37.9170   -2.8130   32.5740 C.3    55  ILE55       0.0019
     48  CG2       39.3130   -4.5630   33.7380 C.3    55  ILE55       0.0020
     49  CD1       37.1100   -2.4320   33.8250 C.3    55  ILE55       0.0001
     50  N         42.2130   -2.9140   34.7120 N.am   56  GLY56      -0.1942
     51  CA        43.6190   -3.3010   34.8100 C.3    56  GLY56       0.2014
     52  C         44.5340   -2.1720   34.3570 C.2    56  GLY56       0.2639
     53  O         45.5690   -2.4060   33.7240 O.2    56  GLY56      -0.2714
     54  N         44.1460   -0.9420   34.6940 N.am   57  GLY57      -0.1939
     55  CA        44.8990    0.2460   34.3130 C.3    57  GLY57       0.2014
     56  C         46.3590    0.3110   34.7240 C.2    57  GLY57       0.2639
     57  O         47.1420    1.0510   34.1220 O.2    57  GLY57      -0.2714
     58  N         46.7330   -0.4380   35.7570 N.am   58  GLY58      -0.1939
     59  CA        48.1190   -0.4390   36.1920 C.3    58  GLY58       0.2014
     60  C         48.6570    0.8930   36.6910 C.2    58  GLY58       0.2638
     61  O         48.0580    1.5300   37.5610 O.2    58  GLY58      -0.2714
     62  N         49.7950    1.3110   36.1410 N.am   59  ALA59      -0.1977
     63  CA        50.4400    2.5580   36.5430 C.3    59  ALA59       0.1597
     64  C         49.9170    3.8210   35.8540 C.2    59  ALA59       0.2287
     65  O         50.4300    4.9110   36.0930 O.2    59  ALA59      -0.2864
     66  CB        51.9500    2.4430   36.3480 C.3    59  ALA59       0.0319
     67  N         50.1810    4.9460   32.7360 N.3    61  GLU61      -0.1231
     68  CA        50.8610    5.5050   31.5780 C.3    61  GLU61       0.1699
     69  C         50.0340    5.4610   30.2890 C.2    61  GLU61       0.2592
     70  O         49.8230    6.4940   29.6530 O.2    61  GLU61      -0.2718
     71  CB        52.2030    4.8060   31.3590 C.3    61  GLU61       0.0402
     72  CG        53.1770    5.6490   30.5570 C.3    61  GLU61       0.1161
     73  CD        54.5530    5.0220   30.4670 C.2    61  GLU61       0.3649
     74  OE1       54.9520    4.3430   31.4390 O.co2  61  GLU61      -0.2457
     75  OE2       55.2370    5.2200   29.4350 O.co2  61  GLU61      -0.2457
     76  N         49.5690    4.2770   29.8930 N.am   62  ILE62      -0.1966
     77  CA        48.7690    4.1550   28.6770 C.3    62  ILE62       0.1727
     78  C         47.4360    4.8980   28.8220 C.2    62  ILE62       0.2616
     79  O         46.9300    5.4750   27.8630 O.2    62  ILE62      -0.2715
     80  CB        48.4930    2.6690   28.3300 C.3    62  ILE62       0.0290
     81  CG1       49.8060    1.9620   28.0030 C.3    62  ILE62       0.0022
     82  CG2       47.5590    2.5690   27.1240 C.3    62  ILE62       0.0023
     83  CD1       50.5390    2.5620   26.8180 C.3    62  ILE62       0.0001
     84  N         46.8670    4.8760   30.0240 N.am   63  ASP63      -0.1971
     85  CA        45.6040    5.5640   30.2610 C.3    63  ASP63       0.1709
     86  C         45.7090    7.0590   29.9290 C.2    63  ASP63       0.2293
     87  O         44.7820    7.6480   29.3660 O.2    63  ASP63      -0.2864
     88  CB        45.1580    5.3980   31.7200 C.3    63  ASP63       0.1436
     89  CG        44.6560    3.9930   32.0340 C.2    63  ASP63       0.3671
     90  OD1       44.0100    3.8200   33.0870 O.co2  63  ASP63      -0.2456
     91  OD2       44.9090    3.0620   31.2450 O.co2  63  ASP63      -0.2456
     92  N         39.7970    0.2840   37.3610 N.3    84  VAL84      -0.1231
     93  CA        39.5810   -0.9460   38.1190 C.3    84  VAL84       0.1692
     94  C         40.9230   -1.6750   38.1640 C.2    84  VAL84       0.2592
     95  O         41.3220   -2.3430   37.2160 O.2    84  VAL84      -0.2718
     96  CB        38.5260   -1.8330   37.4560 C.3    84  VAL84       0.0266
     97  CG1       38.3810   -3.1230   38.2350 C.3    84  VAL84       0.0020
     98  CG2       37.1850   -1.1020   37.4120 C.3    84  VAL84       0.0020
     99  N         41.6250   -1.5030   39.2750 N.am   85  GLU85      -0.1966
    100  CA        42.9420   -2.0810   39.4620 C.3    85  GLU85       0.1718
    101  C         43.0260   -2.7260   40.8450 C.2    85  GLU85       0.2458
    102  O         42.7820   -2.0730   41.8600 O.2    85  GLU85      -0.2730
    103  CB        43.9850   -0.9640   39.3030 C.3    85  GLU85       0.0428
    104  CG        45.4060   -1.3400   39.6290 C.3    85  GLU85       0.1163
    105  CD        45.8690   -2.5530   38.8610 C.2    85  GLU85       0.3649
    106  OE1       45.9630   -2.4870   37.6130 O.co2  85  GLU85      -0.2457
    107  OE2       46.1290   -3.5770   39.5190 O.co2  85  GLU85      -0.2457
    108  N         43.3580   -4.0280   40.8990 N.am   86  PRO86      -0.2716
    109  CA        43.4730   -4.7760   42.1580 C.3    86  PRO86       0.1536
    110  C         44.6980   -4.4310   43.0130 C.2    86  PRO86       0.2599
    111  O         44.6270   -4.4540   44.2420 O.2    86  PRO86      -0.2715
    112  CB        43.4840   -6.2290   41.6890 C.3    86  PRO86       0.0310
    113  CG        44.2030   -6.1370   40.3710 C.3    86  PRO86       0.0237
    114  CD        43.5550   -4.9190   39.7420 C.3    86  PRO86       0.0939
    115  N         45.8140   -4.1160   42.3600 N.am   87  SER87      -0.1950
    116  CA        47.0580   -3.7780   43.0520 C.3    87  SER87       0.1924
    117  C         47.0860   -2.3980   43.7040 C.2    87  SER87       0.2314
    118  O         47.0640   -1.3770   43.0110 O.2    87  SER87      -0.2863
    119  CB        48.2390   -3.8620   42.0910 C.3    87  SER87       0.2116
    120  OG        49.3770   -3.2350   42.6580 O.3    87  SER87      -0.2180
    121  N         49.9170   -0.4330   42.3540 N.3    90  GLN90      -0.1245
    122  CA        49.7090    0.1100   41.0140 C.3    90  GLN90       0.1566
    123  C         48.9210    1.4150   41.1500 C.2    90  GLN90       0.2260
    124  O         49.2660    2.4360   40.5490 O.2    90  GLN90      -0.2867
    125  CB        48.9310   -0.8880   40.1450 C.3    90  GLN90       0.0367
    126  CG        49.7470   -2.0630   39.6390 C.3    90  GLN90       0.0905
    127  CD        50.8550   -1.6330   38.6960 C.2    90  GLN90       0.2608
    128  OE1       51.8260   -1.0020   39.1070 O.2    90  GLN90      -0.2717
    129  NE2       50.7080   -1.9640   37.4170 N.am   90  GLN90      -0.0878
    130  N         39.2250   -6.5700   41.3730 N.3   115  THR115     -0.1203
    131  CA        39.4340   -7.1140   40.0400 C.3   115  THR115      0.1994
    132  C         38.2000   -6.8340   39.1840 C.2   115  THR115      0.2619
    133  O         37.1750   -6.3790   39.6950 O.2   115  THR115     -0.2717
    134  CB        39.7170   -8.6260   40.0890 C.3   115  THR115      0.1784
    135  OG1       38.6310   -9.3020   40.7330 O.3   115  THR115     -0.2211
    136  CG2       41.0100   -8.8900   40.8420 C.3   115  THR115      0.0376
    137  N         38.2960   -7.0840   37.8830 N.am  116  SER116     -0.1937
    138  CA        37.1640   -6.8230   37.0020 C.3   116  SER116      0.2055
    139  C         35.9810   -7.6930   37.4040 C.2   116  SER116      0.2643
    140  O         34.8250   -7.2760   37.3210 O.2   116  SER116     -0.2714
    141  CB        37.5460   -7.0920   35.5390 C.3   116  SER116      0.2130
    142  OG        37.8380   -8.4580   35.3290 O.3   116  SER116     -0.2179
    143  N         36.2840   -8.9050   37.8480 N.am  117  SER117     -0.1949
    144  CA        35.2570   -9.8450   38.2700 C.3   117  SER117      0.1924
    145  C         34.5520   -9.3150   39.5120 C.2   117  SER117      0.2314
    146  O         33.3250   -9.3930   39.6290 O.2   117  SER117     -0.2863
    147  CB        35.8910  -11.2010   38.5760 C.3   117  SER117      0.2116
    148  OG        34.8980  -12.1520   38.8910 O.3   117  SER117     -0.2180
    149  N         43.6670   -3.3730   28.4810 N.3   138  ILE138     -0.1231
    150  CA        44.9650   -3.4840   27.8680 C.3   138  ILE138      0.1692
    151  C         45.9690   -4.4030   28.5630 C.2   138  ILE138      0.2592
    152  O         46.3650   -4.1670   29.7070 O.2   138  ILE138     -0.2718
    153  CB        45.5320   -2.0400   27.6970 C.3   138  ILE138      0.0266
    154  CG1       44.5700   -1.2370   26.8050 C.3   138  ILE138      0.0019
    155  CG2       46.9250   -2.0760   27.0850 C.3   138  ILE138      0.0020
    156  CD1       44.8800    0.2450   26.7100 C.3   138  ILE138      0.0001
    157  N         46.3690   -5.4550   27.8500 N.am  139  GLN139     -0.1966
    158  CA        47.3520   -6.4130   28.3500 C.3   139  GLN139      0.1733
    159  C         47.0050   -6.9560   29.7230 C.2   139  GLN139      0.2616
    160  O         47.8870   -7.1180   30.5570 O.2   139  GLN139     -0.2715
    161  CB        48.7390   -5.7560   28.4170 C.3   139  GLN139      0.0408
    162  CG        49.3650   -5.4880   27.0590 C.3   139  GLN139      0.0908
    163  CD        49.7670   -6.7850   26.3480 C.2   139  GLN139      0.2608
    164  OE1       48.9390   -7.6760   26.1900 O.2   139  GLN139     -0.2717
    165  NE2       51.0190   -6.8890   25.9210 N.am  139  GLN139     -0.0878
    166  N         45.7320   -7.2450   29.9620 N.am  140  MET140     -0.1977
    167  CA        45.3410   -7.7540   31.2630 C.3   140  MET140      0.1605
    168  C         44.3720   -8.9380   31.2450 C.2   140  MET140      0.2287
    169  O         44.0900   -9.5120   32.2980 O.2   140  MET140     -0.2864
    170  CB        44.7740   -6.6060   32.1200 C.3   140  MET140      0.0413
    171  CG        43.5040   -5.9490   31.5710 C.3   140  MET140      0.0598
    172  SD        42.0940   -7.0660   31.5540 S.3   140  MET140     -0.1393
    173  CE        41.7960   -7.2600   33.3100 C.3   140  MET140      0.0692
    174  N         44.8590  -12.2930   33.0410 N.3   143  TYR143     -0.1227
    175  CA        44.5980  -12.4490   34.4680 C.3   143  TYR143      0.1736
    176  C         43.1460  -12.5370   34.8720 C.2   143  TYR143      0.2595
    177  O         42.8200  -12.4210   36.0510 O.2   143  TYR143     -0.2718
    178  CB        45.2830  -11.3190   35.2320 C.3   143  TYR143      0.0548
    179  CG        46.6550  -11.0250   34.6820 C.ar  143  TYR143     -0.0200
    180  CD1       46.9150   -9.8330   34.0150 C.ar  143  TYR143     -0.0009
    181  CD2       47.6820  -11.9720   34.7630 C.ar  143  TYR143     -0.0009
    182  CE1       48.1550   -9.5850   33.4380 C.ar  143  TYR143      0.0417
    183  CE2       48.9340  -11.7300   34.1900 C.ar  143  TYR143      0.0417
    184  CZ        49.1580  -10.5350   33.5240 C.ar  143  TYR143      0.1957
    185  OH        50.3680  -10.2850   32.9230 O.3   143  TYR143     -0.2866
    186  N         42.2760  -12.7550   33.8980 N.am  144  VAL144     -0.1980
    187  CA        40.8560  -12.8710   34.1740 C.3   144  VAL144      0.1595
    188  C         40.4680  -14.3340   34.0630 C.2   144  VAL144      0.2287
    189  O         40.8730  -15.0240   33.1300 O.2   144  VAL144     -0.2864
    190  CB        40.0240  -12.0150   33.1840 C.3   144  VAL144      0.0276
    191  CG1       38.5370  -12.2830   33.3740 C.3   144  VAL144      0.0022
    192  CG2       40.3210  -10.5350   33.4170 C.3   144  VAL144      0.0022
    193  N         46.9710  -17.8000   38.3610 N.3   191  LEU191     -0.1245
    194  CA        46.6960  -16.3700   38.3550 C.3   191  LEU191      0.1561
    195  C         46.7280  -15.8480   36.9160 C.2   191  LEU191      0.2260
    196  O         46.1880  -14.7860   36.6210 O.2   191  LEU191     -0.2867
    197  CB        47.7390  -15.6310   39.1990 C.3   191  LEU191      0.0270
    198  CG        47.3910  -14.1910   39.5590 C.3   191  LEU191      0.0019
    199  CD1       46.3850  -14.1590   40.6550 C.3   191  LEU191      0.0001
    200  CD2       48.6080  -13.3880   40.0290 C.3   191  LEU191      0.0001
@<TRIPOS>BOND
     1    37    36    2
     2    34    35    1
     3    36    35    1
     4    35    38    1
     5    27    26    2
     6    38    39    1
     7    26    25    1
     8    39    40    1
     9    24    25    1
    10    25    28    1
    11    40    41    1
    12    28    29    1
    13   165   163   am
    14   164   163    2
    15   163   162    1
    16   156   154    1
    17   154   153    1
    18    83    81    1
    19    29    31   ar
    20    29    30   ar
    21   162   161    1
    22   155   153    1
    23    82    80    1
    24    31    33   ar
    25   153   150    1
    26   157   158    1
    27   157   151   am
    28    79    78    2
    29   150   149    1
    30   150   151    1
    31    81    80    1
    32    30    32   ar
    33    80    77    1
    34   158   161    1
    35   158   159    1
    36   151   152    2
    37    33    32   ar
    38    77    78    1
    39    77    76    1
    40    78    84   am
    41    87    86    2
    42    75    73   ar
    43    70    69    2
    44   159   166   am
    45   159   160    2
    46    76    69   am
    47    86    85    1
    48   166   167    1
    49    84    85    1
    50    85    88    1
    51    69    68    1
    52    73    72    1
    53    73    74   ar
    54    72    71    1
    55   168   167    1
    56   168   169    2
    57    91    89   ar
    58   167   170    1
    59    71    68    1
    60   172   171    1
    61   172   173    1
    62   171   170    1
    63    68    67    1
    64    21    23   ar
    65    21    19   ar
    66    88    89    1
    67    23    22   ar
    68    16    15    2
    69    89    90   ar
    70    19    18   ar
    71    45    44    2
    72    47    46    1
    73    47    49    1
    74    22    20   ar
    75    42    43    1
    76    46    43    1
    77    46    48    1
    78   185   184    1
    79   174   175    1
    80    15    14    1
    81   189   188    2
    82   190   191    1
    83   190   192    1
    84   190   187    1
    85    18    20   ar
    86    18    17    1
    87    14    17    1
    88    14    13    1
    89   182   184   ar
    90   182   180   ar
    91    43    44    1
    92   184   183   ar
    93    44    50   am
    94    53    52    2
    95   186   187    1
    96   186   176   am
    97    12    11    1
    98   180   179   ar
    99   188   187    1
   100    57    56    2
   101   183   181   ar
   102    55    54    1
   103    55    56    1
   104    52    54   am
   105    52    51    1
   106   175   176    1
   107   175   178    1
   108   179   181   ar
   109   179   178    1
   110    50    51    1
   111    56    58   am
   112   176   177    2
   113    11     9   ar
   114    11    10   ar
   115     9     7   ar
   116   142   141    1
   117   141   138    1
   118    58    59    1
   119    64    65    2
   120    64    63    1
   121    62    63    1
   122    62    60   am
   123    10     8   ar
   124    59    60    1
   125     7     6   ar
   126    66    63    1
   127   196   195    2
   128    60    61    2
   129     4     3    2
   130   195   194    1
   131   138   139    1
   132   138   137    1
   133    95    94    2
   134   140   139    2
   135     8     6   ar
   136    92    93    1
   137   139   143   am
   138     6     5    1
   139    98    96    1
   140   129   127   am
   141    96    93    1
   142    96    97    1
   143   106   105   ar
   144   143   144    1
   145   137   132   am
   146     3     2    1
   147    93    94    1
   148    94    99   am
   149   144   147    1
   150   144   145    1
   151     2     5    1
   152     2     1    1
   153   194   193    1
   154   194   197    1
   155   147   148    1
   156   127   128    2
   157   127   126    1
   158   105   107   ar
   159   105   104    1
   160   132   133    2
   161   132   131    1
   162   197   198    1
   163    99   100    1
   164   103   100    1
   165   103   104    1
   166   100   101    1
   167   145   146    2
   168   198   200    1
   169   198   199    1
   170   126   125    1
   171   114   113    1
   172   114   108    1
   173   131   134    1
   174   131   130    1
   175   134   135    1
   176   134   136    1
   177   125   122    1
   178   113   112    1
   179   124   123    2
   180   101   108   am
   181   101   102    2
   182   108   109    1
   183   122   123    1
   184   122   121    1
   185   112   109    1
   186   119   120    1
   187   119   116    1
   188   109   110    1
   189   115   110   am
   190   115   116    1
   191   118   117    2
   192   110   111    2
   193   116   117    1
