@<TRIPOS>MOLECULE
tmp/1jqeA01.pdb
 200 197 0 0 0
SMALL
GASTEIGER

@<TRIPOS>ATOM
      1  N         45.6030  -34.3110    8.0540 N.3     3  TYR3       -0.1227
      2  CA        44.8580  -33.8820    6.8770 C.3     3  TYR3        0.1736
      3  C         45.5390  -32.6720    6.2480 C.2     3  TYR3        0.2595
      4  O         45.8140  -32.6660    5.0510 O.2     3  TYR3       -0.2718
      5  CB        43.4110  -33.5350    7.2500 C.3     3  TYR3        0.0548
      6  CG        42.5350  -34.7430    7.4970 C.ar    3  TYR3       -0.0200
      7  CD1       41.3060  -34.6150    8.1420 C.ar    3  TYR3       -0.0009
      8  CD2       42.9370  -36.0190    7.0890 C.ar    3  TYR3       -0.0009
      9  CE1       40.4980  -35.7230    8.3780 C.ar    3  TYR3        0.0417
     10  CE2       42.1370  -37.1350    7.3180 C.ar    3  TYR3        0.0417
     11  CZ        40.9180  -36.9800    7.9620 C.ar    3  TYR3        0.1957
     12  OH        40.1200  -38.0780    8.1790 O.3     3  TYR3       -0.2866
     13  N         45.8260  -31.6560    7.0590 N.am    4  VAL4       -0.1980
     14  CA        46.4730  -30.4460    6.5560 C.3     4  VAL4        0.1595
     15  C         47.8940  -30.7140    6.0650 C.2     4  VAL4        0.2287
     16  O         48.2900  -30.2360    5.0030 O.2     4  VAL4       -0.2864
     17  CB        46.5250  -29.3380    7.6310 C.3     4  VAL4        0.0276
     18  CG1       47.2380  -28.1100    7.0750 C.3     4  VAL4        0.0022
     19  CG2       45.1210  -28.9760    8.0750 C.3     4  VAL4        0.0022
     20  N         49.0490  -33.5300    5.0870 N.3     6  SER6       -0.1202
     21  CA        48.9310  -34.3990    3.9220 C.3     6  SER6        0.2020
     22  C         48.6460  -33.5650    2.6760 C.2     6  SER6        0.2618
     23  O         49.2120  -33.8070    1.6100 O.2     6  SER6       -0.2717
     24  CB        47.8020  -35.4120    4.1340 C.3     6  SER6        0.2103
     25  OG        47.7190  -36.3140    3.0460 O.3     6  SER6       -0.2182
     26  N         47.7630  -32.5800    2.8140 N.am    7  PHE7       -0.1975
     27  CA        47.4220  -31.7240    1.6880 C.3     7  PHE7        0.1639
     28  C         48.6290  -30.8850    1.2750 C.2     7  PHE7        0.2290
     29  O         48.8520  -30.6470    0.0870 O.2     7  PHE7       -0.2864
     30  CB        46.2470  -30.8100    2.0440 C.3     7  PHE7        0.0560
     31  CG        45.8010  -29.9440    0.9040 C.ar    7  PHE7       -0.0200
     32  CD1       45.3300  -30.5170   -0.2750 C.ar    7  PHE7       -0.0042
     33  CD2       45.8800  -28.5570    0.9930 C.ar    7  PHE7       -0.0042
     34  CE1       44.9460  -29.7220   -1.3520 C.ar    7  PHE7       -0.0003
     35  CE2       45.4980  -27.7530   -0.0790 C.ar    7  PHE7       -0.0003
     36  CZ        45.0310  -28.3370   -1.2530 C.ar    7  PHE7       -0.0000
     37  N         50.8090  -32.8810   -0.8200 N.3    10  PHE10      -0.1241
     38  CA        50.2220  -32.9870   -2.1460 C.3    10  PHE10       0.1605
     39  C         50.5550  -31.7380   -2.9570 C.2    10  PHE10       0.2264
     40  O         50.9810  -31.8260   -4.1110 O.2    10  PHE10      -0.2867
     41  CB        48.7060  -33.1240   -2.0520 C.3    10  PHE10       0.0534
     42  CG        47.9970  -32.7890   -3.3330 C.ar   10  PHE10      -0.0203
     43  CD1       48.0400  -33.6570   -4.4160 C.ar   10  PHE10      -0.0042
     44  CD2       47.3140  -31.5860   -3.4660 C.ar   10  PHE10      -0.0042
     45  CE1       47.4160  -33.3310   -5.6110 C.ar   10  PHE10      -0.0003
     46  CE2       46.6870  -31.2520   -4.6590 C.ar   10  PHE10      -0.0003
     47  CZ        46.7370  -32.1260   -5.7320 C.ar   10  PHE10      -0.0000
     48  N         40.0520  -25.0020   10.2740 N.3    79  SER79      -0.1217
     49  CA        41.3690  -25.4180   10.7620 C.3    79  SER79       0.1889
     50  C         42.1950  -24.2900   11.3780 C.2    79  SER79       0.2288
     51  O         42.5440  -23.3210   10.7010 O.2    79  SER79      -0.2866
     52  CB        42.1770  -26.0450    9.6260 C.3    79  SER79       0.2089
     53  OG        43.5100  -26.2860   10.0290 O.3    79  SER79      -0.2183
     54  N         45.4580  -23.9980    9.5940 N.3    82  GLN82      -0.1245
     55  CA        45.3660  -23.2810    8.3270 C.3    82  GLN82       0.1566
     56  C         45.3030  -21.7730    8.5890 C.2    82  GLN82       0.2260
     57  O         46.0050  -20.9910    7.9460 O.2    82  GLN82      -0.2867
     58  CB        44.1220  -23.7280    7.5510 C.3    82  GLN82       0.0367
     59  CG        44.2020  -25.1550    6.9630 C.3    82  GLN82       0.0905
     60  CD        45.2090  -25.2690    5.8320 C.2    82  GLN82       0.2608
     61  OE1       46.4000  -25.0410    6.0240 O.2    82  GLN82      -0.2717
     62  NE2       44.7300  -25.6210    4.6390 N.am   82  GLN82      -0.0878
     63  N         38.5890  -26.0820   -3.7660 N.3   131  GLN131     -0.1245
     64  CA        39.0180  -27.4030   -3.3280 C.3   131  GLN131      0.1566
     65  C         38.5230  -27.7540   -1.9350 C.2   131  GLN131      0.2260
     66  O         39.2550  -28.3490   -1.1390 O.2   131  GLN131     -0.2867
     67  CB        40.5450  -27.4820   -3.3710 C.3   131  GLN131      0.0367
     68  CG        41.1110  -27.5480   -4.7760 C.3   131  GLN131      0.0905
     69  CD        40.8490  -28.8980   -5.4310 C.2   131  GLN131      0.2608
     70  OE1       39.7070  -29.2760   -5.6540 O.2   131  GLN131     -0.2717
     71  NE2       41.9130  -29.6280   -5.7330 N.am  131  GLN131     -0.0878
     72  N         34.3880  -31.0150   -1.1600 N.3   134  TYR134     -0.1227
     73  CA        34.4370  -32.4370   -0.8360 C.3   134  TYR134      0.1736
     74  C         34.0980  -32.6490    0.6310 C.2   134  TYR134      0.2595
     75  O         33.6530  -33.7270    1.0280 O.2   134  TYR134     -0.2718
     76  CB        35.8380  -33.0160   -1.0570 C.3   134  TYR134      0.0548
     77  CG        36.5230  -32.5790   -2.3240 C.ar  134  TYR134     -0.0200
     78  CD1       37.4490  -31.5330   -2.3150 C.ar  134  TYR134     -0.0009
     79  CD2       36.2600  -33.2210   -3.5300 C.ar  134  TYR134     -0.0009
     80  CE1       38.0980  -31.1400   -3.4860 C.ar  134  TYR134      0.0417
     81  CE2       36.8970  -32.8390   -4.7010 C.ar  134  TYR134      0.0417
     82  CZ        37.8120  -31.8020   -4.6740 C.ar  134  TYR134      0.1957
     83  OH        38.4350  -31.4370   -5.8400 O.3   134  TYR134     -0.2866
     84  N         34.3070  -31.6120    1.4350 N.am  135  TYR135     -0.1976
     85  CA        34.0910  -31.7200    2.8720 C.3   135  TYR135      0.1639
     86  C         32.7710  -31.1580    3.3720 C.2   135  TYR135      0.2290
     87  O         32.5550  -31.0420    4.5740 O.2   135  TYR135     -0.2864
     88  CB        35.2610  -31.0520    3.5840 C.3   135  TYR135      0.0560
     89  CG        36.5660  -31.3800    2.8960 C.ar  135  TYR135     -0.0198
     90  CD1       37.3500  -30.3810    2.3230 C.ar  135  TYR135     -0.0009
     91  CD2       36.9830  -32.7050    2.7640 C.ar  135  TYR135     -0.0009
     92  CE1       38.5170  -30.6980    1.6290 C.ar  135  TYR135      0.0417
     93  CE2       38.1390  -33.0290    2.0780 C.ar  135  TYR135      0.0417
     94  CZ        38.9020  -32.0280    1.5140 C.ar  135  TYR135      0.1957
     95  OH        40.0490  -32.3700    0.8370 O.3   135  TYR135     -0.2866
     96  N         38.2160  -31.0120   -8.6780 N.3   161  VAL161     -0.1245
     97  CA        38.8590  -31.7580   -9.7480 C.3   161  VAL161      0.1561
     98  C         37.8400  -32.0060  -10.8490 C.2   161  VAL161      0.2260
     99  O         36.6470  -32.1220  -10.5870 O.2   161  VAL161     -0.2867
    100  CB        39.4200  -33.1100   -9.2570 C.3   161  VAL161      0.0252
    101  CG1       40.5690  -32.8600   -8.2890 C.3   161  VAL161      0.0019
    102  CG2       38.3190  -33.9360   -8.6030 C.3   161  VAL161      0.0019
    103  N         41.3810  -38.5330  -10.8700 N.3   167  TRP167     -0.1241
    104  CA        40.6060  -38.7640   -9.6580 C.3   167  TRP167      0.1605
    105  C         39.2840  -39.4200  -10.0180 C.2   167  TRP167      0.2264
    106  O         38.8370  -40.3470   -9.3440 O.2   167  TRP167     -0.2867
    107  CB        40.3430  -37.4440   -8.9290 C.3   167  TRP167      0.0550
    108  CG        41.5890  -36.8250   -8.4050 C.ar  167  TRP167      0.0003
    109  CD1       42.2740  -35.7670   -8.9380 C.ar  167  TRP167      0.0946
    110  CD2       42.3180  -37.2370   -7.2500 C.ar  167  TRP167      0.0152
    111  NE1       43.3840  -35.4930   -8.1760 N.ar  167  TRP167     -0.2442
    112  CE2       43.4340  -36.3810   -7.1300 C.ar  167  TRP167      0.0810
    113  CE3       42.1320  -38.2460   -6.2910 C.ar  167  TRP167      0.0012
    114  CZ2       44.3680  -36.5060   -6.0960 C.ar  167  TRP167      0.0191
    115  CZ3       43.0600  -38.3700   -5.2620 C.ar  167  TRP167      0.0001
    116  CH2       44.1620  -37.5010   -5.1720 C.ar  167  TRP167      0.0015
    117  N         38.1720  -42.9350   -8.3850 N.3   171  TRP171     -0.1241
    118  CA        36.9950  -43.0920   -7.5470 C.3   171  TRP171      0.1605
    119  C         35.9430  -44.0340   -8.1310 C.2   171  TRP171      0.2264
    120  O         35.3460  -44.8320   -7.4080 O.2   171  TRP171     -0.2867
    121  CB        36.3880  -41.7180   -7.2510 C.3   171  TRP171      0.0550
    122  CG        37.3470  -40.8200   -6.5250 C.ar  171  TRP171      0.0003
    123  CD1       38.3750  -41.2080   -5.7040 C.ar  171  TRP171      0.0946
    124  CD2       37.3390  -39.3870   -6.5020 C.ar  171  TRP171      0.0152
    125  NE1       39.0010  -40.1060   -5.1740 N.ar  171  TRP171     -0.2442
    126  CE2       38.3860  -38.9780   -5.6450 C.ar  171  TRP171      0.0810
    127  CE3       36.5440  -38.4110   -7.1200 C.ar  171  TRP171      0.0012
    128  CZ2       38.6600  -37.6290   -5.3890 C.ar  171  TRP171      0.0191
    129  CZ3       36.8200  -37.0680   -6.8630 C.ar  171  TRP171      0.0001
    130  CH2       37.8690  -36.6940   -6.0050 C.ar  171  TRP171      0.0015
    131  N         38.0780  -46.2650    2.1170 N.3   179  PRO179     -0.2116
    132  CA        37.3040  -45.9420    3.3180 C.3   179  PRO179      0.1372
    133  C         36.2560  -44.8650    3.0550 C.2   179  PRO179      0.2244
    134  O         36.5770  -43.6770    2.9710 O.2   179  PRO179     -0.2868
    135  CB        38.3760  -45.4900    4.3080 C.3   179  PRO179      0.0268
    136  CG        39.4210  -44.8920    3.4180 C.3   179  PRO179      0.0207
    137  CD        39.4940  -45.9000    2.2940 C.3   179  PRO179      0.0892
    138  N         33.1330  -42.2940    3.6840 N.3   181  ASP181     -0.1239
    139  CA        32.9260  -41.3610    4.7850 C.3   181  ASP181      0.1674
    140  C         32.2660  -40.0750    4.2930 C.2   181  ASP181      0.2266
    141  O         32.7060  -39.4830    3.3080 O.2   181  ASP181     -0.2867
    142  CB        34.2700  -41.0290    5.4340 C.3   181  ASP181      0.1410
    143  CG        34.1290  -40.5360    6.8590 C.2   181  ASP181      0.3668
    144  OD1       33.3450  -39.5940    7.0940 O.co2 181  ASP181     -0.2456
    145  OD2       34.8170  -41.0890    7.7440 O.co2 181  ASP181     -0.2456
    146  N         32.4080  -37.3510    5.6380 N.3   183  LEU183     -0.1231
    147  CA        33.3390  -36.2650    5.9150 C.3   183  LEU183      0.1693
    148  C         34.1130  -35.8850    4.6560 C.2   183  LEU183      0.2592
    149  O         34.7080  -34.8110    4.5810 O.2   183  LEU183     -0.2718
    150  CB        34.3150  -36.6850    7.0160 C.3   183  LEU183      0.0284
    151  CG        35.3140  -35.6530    7.5180 C.3   183  LEU183      0.0019
    152  CD1       34.6200  -34.5780    8.3450 C.3   183  LEU183      0.0001
    153  CD2       36.4110  -36.3240    8.3400 C.3   183  LEU183      0.0001
    154  N         34.0980  -36.7670    3.6640 N.am  184  CYS184     -0.1956
    155  CA        34.8060  -36.5060    2.4190 C.3   184  CYS184      0.1843
    156  C         34.0960  -37.1610    1.2410 C.2   184  CYS184      0.2625
    157  O         34.0420  -38.3840    1.1420 O.2   184  CYS184     -0.2714
    158  CB        36.2390  -37.0300    2.5150 C.3   184  CYS184      0.0997
    159  SG        37.2910  -36.5740    1.1210 S.3   184  CYS184     -0.0797
    160  N         33.5520  -36.3390    0.3500 N.am  185  GLN185     -0.1963
    161  CA        32.8450  -36.8500   -0.8120 C.3   185  GLN185      0.1733
    162  C         33.7280  -36.8940   -2.0480 C.2   185  GLN185      0.2616
    163  O         34.5230  -35.9880   -2.2910 O.2   185  GLN185     -0.2715
    164  CB        31.6200  -35.9900   -1.1150 C.3   185  GLN185      0.0408
    165  CG        30.5880  -35.9320   -0.0060 C.3   185  GLN185      0.0908
    166  CD        29.2840  -35.3240   -0.4860 C.2   185  GLN185      0.2608
    167  OE1       28.7050  -35.7800   -1.4720 O.2   185  GLN185     -0.2717
    168  NE2       28.8160  -34.2960    0.2060 N.am  185  GLN185     -0.0878
    169  N         33.5700  -37.9550   -2.8290 N.am  186  TYR186     -0.1974
    170  CA        34.3240  -38.1310   -4.0600 C.3   186  TYR186      0.1639
    171  C         33.5630  -37.4660   -5.1970 C.2   186  TYR186      0.2290
    172  O         32.9650  -38.1510   -6.0260 O.2   186  TYR186     -0.2864
    173  CB        34.4890  -39.6250   -4.3700 C.3   186  TYR186      0.0560
    174  CG        35.4190  -40.3720   -3.4340 C.ar  186  TYR186     -0.0198
    175  CD1       35.3230  -41.7580   -3.2910 C.ar  186  TYR186     -0.0009
    176  CD2       36.4080  -39.7020   -2.7140 C.ar  186  TYR186     -0.0009
    177  CE1       36.1910  -42.4580   -2.4520 C.ar  186  TYR186      0.0417
    178  CE2       37.2800  -40.3910   -1.8740 C.ar  186  TYR186      0.0417
    179  CZ        37.1660  -41.7680   -1.7480 C.ar  186  TYR186      0.1957
    180  OH        38.0270  -42.4510   -0.9180 O.3   186  TYR186     -0.2866
    181  N         47.4480  -40.3790    0.7160 N.3   231  PHE231     -0.1241
    182  CA        46.6830  -39.2720    0.1590 C.3   231  PHE231      0.1605
    183  C         45.7430  -39.7560   -0.9420 C.2   231  PHE231      0.2264
    184  O         44.5400  -39.4960   -0.9080 O.2   231  PHE231     -0.2867
    185  CB        47.6250  -38.2180   -0.4200 C.3   231  PHE231      0.0534
    186  CG        46.9300  -36.9520   -0.8270 C.ar  231  PHE231     -0.0203
    187  CD1       46.6810  -35.9530    0.1040 C.ar  231  PHE231     -0.0042
    188  CD2       46.5040  -36.7670   -2.1380 C.ar  231  PHE231     -0.0042
    189  CE1       46.0210  -34.7880   -0.2670 C.ar  231  PHE231     -0.0003
    190  CE2       45.8390  -35.6030   -2.5150 C.ar  231  PHE231     -0.0003
    191  CZ        45.5980  -34.6140   -1.5770 C.ar  231  PHE231     -0.0000
    192  N         43.3020  -42.0790    0.6090 N.3   234  GLU234     -0.1245
    193  CA        42.6840  -41.5250    1.8070 C.3   234  GLU234      0.1567
    194  C         42.6390  -42.5770    2.9060 C.2   234  GLU234      0.2260
    195  O         41.6610  -42.7020    3.6440 O.2   234  GLU234     -0.2867
    196  CB        41.2880  -40.9930    1.4770 C.3   234  GLU234      0.0388
    197  CG        41.3460  -39.7210    0.6390 C.3   234  GLU234      0.1160
    198  CD        39.9840  -39.2110    0.2310 C.2   234  GLU234      0.3649
    199  OE1       39.1060  -39.0830    1.1120 O.co2 234  GLU234     -0.2457
    200  OE2       39.7940  -38.9300   -0.9730 O.co2 234  GLU234     -0.2457
@<TRIPOS>BOND
     1   103   104    1
     2    98    99    2
     3    98    97    1
     4   105   104    1
     5   105   106    2
     6    97   100    1
     7    97    96    1
     8   104   107    1
     9   100   102    1
    10   100   101    1
    11   109   108   ar
    12   109   111   ar
    13   107   108    1
    14   108   110   ar
    15   117   118    1
    16   111   112   ar
    17   119   118    1
    18   119   120    2
    19   118   121    1
    20   121   122    1
    21   110   112   ar
    22   110   113   ar
    23   112   114   ar
    24   127   129   ar
    25   127   124   ar
    26   129   130   ar
    27   122   124   ar
    28   122   123   ar
    29   124   126   ar
    30   113   115   ar
    31   114   116   ar
    32   172   171    2
    33   130   128   ar
    34    83    82    1
    35    71    69   am
    36    47    45   ar
    37    47    46   ar
    38   123   125   ar
    39    70    69    2
    40   126   128   ar
    41   126   125   ar
    42    45    43   ar
    43    69    68    1
    44   115   116   ar
    45   171   170    1
    46    68    67    1
    47    81    82   ar
    48    81    79   ar
    49    82    80   ar
    50    46    44   ar
    51    43    42   ar
    52   173   170    1
    53   173   174    1
    54    40    39    2
    55   170   169    1
    56    63    64    1
    57    79    77   ar
    58    80    78   ar
    59    44    42   ar
    60   174   175   ar
    61   174   176   ar
    62    67    64    1
    63    42    41    1
    64    64    65    1
    65   175   177   ar
    66    39    38    1
    67   169   162   am
    68   176   178   ar
    69   190   188   ar
    70   190   191   ar
    71   177   179   ar
    72    77    78   ar
    73    77    76    1
    74   163   162    2
    75    38    41    1
    76    38    37    1
    77   188   186   ar
    78   162   161    1
    79    65    66    2
    80   178   179   ar
    81   179   180    1
    82   191   189   ar
    83   167   166    2
    84    34    36   ar
    85    34    32   ar
    86    36    35   ar
    87    72    73    1
    88   164   161    1
    89   164   165    1
    90    76    73    1
    91   200   198   ar
    92   183   184    2
    93   183   182    1
    94    73    74    1
    95   186   185    1
    96   186   187   ar
    97   161   160    1
    98   166   165    1
    99   166   168   am
   100   185   182    1
   101    32    31   ar
   102   189   187   ar
   103    35    33   ar
   104    29    28    2
   105   182   181    1
   106   198   197    1
   107   198   199   ar
   108   160   156   am
   109   192   193    1
   110    74    75    2
   111    74    84   am
   112   197   196    1
   113    95    94    1
   114    31    33   ar
   115    31    30    1
   116   159   158    1
   117   157   156    2
   118   156   155    1
   119    28    27    1
   120    84    85    1
   121   196   193    1
   122    94    92   ar
   123    94    93   ar
   124    23    22    2
   125    92    90   ar
   126    27    30    1
   127    27    26    1
   128   193   194    1
   129    93    91   ar
   130   131   137    1
   131   131   132    1
   132   137   136    1
   133    90    89   ar
   134   155   158    1
   135   155   154    1
   136    22    26   am
   137    22    21    1
   138    91    89   ar
   139    85    86    1
   140    85    88    1
   141    89    88    1
   142   194   195    2
   143   134   133    2
   144    25    24    1
   145   133   132    1
   146   141   140    2
   147   132   135    1
   148    86    87    2
   149   136   135    1
   150   154   148   am
   151   138   139    1
   152    21    24    1
   153    21    20    1
   154   140   139    1
   155   149   148    2
   156    62    60   am
   157   148   147    1
   158   139   142    1
   159    16    15    2
   160     4     3    2
   161   142   143    1
   162   146   147    1
   163    60    61    2
   164    60    59    1
   165   147   150    1
   166    15    14    1
   167     3     2    1
   168     3    13   am
   169    14    13    1
   170    14    17    1
   171   143   144   ar
   172   143   145   ar
   173     2     5    1
   174     2     1    1
   175    59    58    1
   176   150   151    1
   177    18    17    1
   178     8    10   ar
   179     8     6   ar
   180     5     6    1
   181    10    11   ar
   182     6     7   ar
   183   151   153    1
   184   151   152    1
   185    58    55    1
   186    17    19    1
   187    57    56    2
   188    11    12    1
   189    11     9   ar
   190     7     9   ar
   191    55    56    1
   192    55    54    1
   193    52    53    1
   194    52    49    1
   195    48    49    1
   196    51    50    2
   197    49    50    1
