@<TRIPOS>MOLECULE
tmp/1jqhC00.pdb
 175 164 0 0 0
SMALL
GASTEIGER

@<TRIPOS>ATOM
      1  N          8.7610   48.7980  -13.7620 N.3    22  LEU22      -0.1231
      2  CA         9.5680   47.7460  -13.1590 C.3    22  LEU22       0.1693
      3  C          8.9160   46.4220  -13.5350 C.2    22  LEU22       0.2593
      4  O          9.5970   45.4420  -13.8120 O.2    22  LEU22      -0.2718
      5  CB         9.6110   47.8840  -11.6370 C.3    22  LEU22       0.0284
      6  CG        10.3380   49.0930  -11.0530 C.3    22  LEU22       0.0019
      7  CD1       10.1880   49.0930   -9.5370 C.3    22  LEU22       0.0001
      8  CD2       11.8020   49.0540  -11.4480 C.3    22  LEU22       0.0001
      9  N          7.5890   46.4000  -13.5520 N.am   23  GLY23      -0.1942
     10  CA         6.8800   45.1870  -13.8990 C.3    23  GLY23       0.2014
     11  C          5.4200   45.2480  -13.5050 C.2    23  GLY23       0.2639
     12  O          5.0590   45.8960  -12.5250 O.2    23  GLY23      -0.2714
     13  N          4.5680   44.5900  -14.2810 N.am   24  GLN24      -0.1963
     14  CA         3.1450   44.5710  -13.9920 C.3    24  GLN24       0.1733
     15  C          2.9110   43.8710  -12.6520 C.2    24  GLN24       0.2617
     16  O          3.6730   42.9900  -12.2590 O.2    24  GLN24      -0.2715
     17  CB         2.4090   43.8390  -15.1120 C.3    24  GLN24       0.0408
     18  CG         0.8900   43.7630  -14.9620 C.3    24  GLN24       0.0908
     19  CD         0.2080   45.1070  -15.1050 C.2    24  GLN24       0.2608
     20  OE1        0.7530   46.0370  -15.7130 O.2    24  GLN24      -0.2717
     21  NE2       -1.0030   45.2140  -14.5630 N.am   24  GLN24      -0.0878
     22  N          1.8590   44.2790  -11.9510 N.am   25  GLY25      -0.1940
     23  CA         1.5250   43.6890  -10.6730 C.3    25  GLY25       0.2014
     24  C          0.1180   43.1260  -10.7160 C.2    25  GLY25       0.2640
     25  O         -0.4830   43.0590  -11.7860 O.2    25  GLY25      -0.2714
     26  N         -0.4190   42.7260   -9.5680 N.am   26  SER26      -0.1935
     27  CA        -1.7630   42.1680   -9.5250 C.3    26  SER26       0.2055
     28  C         -2.8040   43.2180   -9.8810 C.2    26  SER26       0.2643
     29  O         -3.8030   42.9090  -10.5260 O.2    26  SER26      -0.2714
     30  CB        -2.0680   41.6070   -8.1330 C.3    26  SER26       0.2130
     31  OG        -1.1640   40.5740   -7.7900 O.3    26  SER26      -0.2179
     32  N         -2.5750   44.4580   -9.4580 N.am   27  PHE27      -0.1973
     33  CA        -3.5310   45.5330   -9.7290 C.3    27  PHE27       0.1639
     34  C         -3.1420   46.4320  -10.8940 C.2    27  PHE27       0.2290
     35  O         -3.9790   47.1690  -11.4250 O.2    27  PHE27      -0.2864
     36  CB        -3.7310   46.4000   -8.4820 C.3    27  PHE27       0.0560
     37  CG        -4.4370   45.6930   -7.3620 C.ar   27  PHE27      -0.0200
     38  CD1       -3.7280   44.9240   -6.4460 C.ar   27  PHE27      -0.0042
     39  CD2       -5.8220   45.7870   -7.2310 C.ar   27  PHE27      -0.0042
     40  CE1       -4.3880   44.2600   -5.4160 C.ar   27  PHE27      -0.0003
     41  CE2       -6.4930   45.1250   -6.2030 C.ar   27  PHE27      -0.0003
     42  CZ        -5.7750   44.3620   -5.2960 C.ar   27  PHE27      -0.0000
     43  N          3.8540   48.4090  -12.1020 N.3    30  VAL30      -0.1245
     44  CA         4.6590   48.9120  -11.0020 C.3    30  VAL30       0.1561
     45  C          5.7960   49.6950  -11.6570 C.2    30  VAL30       0.2260
     46  O          6.4410   49.2180  -12.5930 O.2    30  VAL30      -0.2867
     47  CB         5.2340   47.7560  -10.1350 C.3    30  VAL30       0.0252
     48  CG1        6.1060   48.3210   -9.0190 C.3    30  VAL30       0.0019
     49  CG2        4.0960   46.9260   -9.5470 C.3    30  VAL30       0.0019
     50  N          9.3500   52.6770   -5.3670 N.3    48  ALA48      -0.1245
     51  CA         8.6630   51.7740   -6.2740 C.3    48  ALA48       0.1562
     52  C          7.2270   52.2680   -6.2320 C.2    48  ALA48       0.2260
     53  O          6.6670   52.4380   -5.1460 O.2    48  ALA48      -0.2867
     54  CB         8.7520   50.3460   -5.7680 C.3    48  ALA48       0.0290
     55  N          3.4520   51.4560   -7.0510 N.3    50  LYS50      -0.1245
     56  CA         2.4590   50.4730   -7.4500 C.3    50  LYS50       0.1561
     57  C          1.2060   51.2310   -7.8420 C.2    50  LYS50       0.2260
     58  O          0.7720   52.1470   -7.1350 O.2    50  LYS50      -0.2867
     59  CB         2.1670   49.5070   -6.2990 C.3    50  LYS50       0.0271
     60  CG         3.4170   48.8530   -5.7450 C.3    50  LYS50       0.0035
     61  CD         3.2900   47.3280   -5.6570 C.3    50  LYS50       0.0206
     62  CE         2.9530   46.8650   -4.2560 C.3    50  LYS50       0.1093
     63  NZ         3.1170   45.4010   -4.1440 N.3    50  LYS50      -0.1314
     64  N         -5.0700   46.6180    1.1730 N.3    67  GLU67      -0.1245
     65  CA        -4.0670   45.5690    1.2310 C.3    67  GLU67       0.1567
     66  C         -2.6940   46.1760    1.4680 C.2    67  GLU67       0.2260
     67  O         -1.9180   45.6650    2.2520 O.2    67  GLU67      -0.2867
     68  CB        -4.0380   44.7600   -0.0590 C.3    67  GLU67       0.0388
     69  CG        -3.0900   43.5640    0.0340 C.3    67  GLU67       0.1160
     70  CD        -2.9110   42.8490   -1.2940 C.2    67  GLU67       0.3649
     71  OE1       -3.9290   42.3910   -1.8610 O.co2  67  GLU67      -0.2457
     72  OE2       -1.7510   42.7430   -1.7660 O.co2  67  GLU67      -0.2457
     73  N         10.4440   45.1070    3.6650 N.3    80  VAL80      -0.1245
     74  CA        10.2790   46.2190    2.7370 C.3    80  VAL80       0.1561
     75  C          9.2630   47.2200    3.2780 C.2    80  VAL80       0.2260
     76  O          8.1710   46.8500    3.7020 O.2    80  VAL80      -0.2867
     77  CB         9.8630   45.7300    1.3520 C.3    80  VAL80       0.0252
     78  CG1        9.5630   46.9100    0.4420 C.3    80  VAL80       0.0019
     79  CG2       10.9910   44.9020    0.7670 C.3    80  VAL80       0.0019
     80  N          6.4580   52.4730   -2.2620 N.3    96  MET96      -0.1230
     81  CA         7.2090   51.4860   -1.4880 C.3    96  MET96       0.1702
     82  C          8.7020   51.7500   -1.5400 C.2    96  MET96       0.2592
     83  O          9.2140   52.3930   -2.4630 O.2    96  MET96      -0.2718
     84  CB         6.9810   50.0710   -2.0410 C.3    96  MET96       0.0401
     85  CG         5.5520   49.5780   -2.0600 C.3    96  MET96       0.0596
     86  SD         4.8180   49.5120   -0.4260 S.3    96  MET96      -0.1393
     87  CE         5.9770   48.4460    0.4620 C.3    96  MET96       0.0692
     88  N          9.4020   51.2360   -0.5390 N.am   97  GLU97      -0.1966
     89  CA        10.8540   51.3460   -0.4920 C.3    97  GLU97       0.1733
     90  C         11.3290   50.6550   -1.7740 C.2    97  GLU97       0.2616
     91  O         10.7960   49.6030   -2.1510 O.2    97  GLU97      -0.2715
     92  CB        11.3640   50.5950    0.7300 C.3    97  GLU97       0.0429
     93  CG        12.8490   50.4350    0.8070 C.3    97  GLU97       0.1163
     94  CD        13.2740   49.5500    1.9720 C.2    97  GLU97       0.3649
     95  OE1       14.4920   49.3530    2.1550 O.co2  97  GLU97      -0.2457
     96  OE2       12.3940   49.0490    2.7040 O.co2  97  GLU97      -0.2457
     97  N         12.3160   51.2420   -2.4460 N.am   98  LEU98      -0.1963
     98  CA        12.8300   50.6740   -3.6980 C.3    98  LEU98       0.1728
     99  C         13.8680   49.5610   -3.4790 C.2    98  LEU98       0.2616
    100  O         14.8550   49.7560   -2.7720 O.2    98  LEU98      -0.2715
    101  CB        13.4620   51.7810   -4.5400 C.3    98  LEU98       0.0311
    102  CG        13.3410   51.7680   -6.0730 C.3    98  LEU98       0.0022
    103  CD1       14.6900   52.1430   -6.6750 C.3    98  LEU98       0.0001
    104  CD2       12.8840   50.4180   -6.5830 C.3    98  LEU98       0.0001
    105  N         13.6230   48.3970   -4.0830 N.am   99  MET99      -0.1963
    106  CA        14.5220   47.2360   -4.0040 C.3    99  MET99       0.1736
    107  C         14.9670   46.9730   -5.4430 C.2    99  MET99       0.2617
    108  O         14.4180   46.1190   -6.1330 O.2    99  MET99      -0.2715
    109  CB        13.7760   46.0140   -3.4780 C.3    99  MET99       0.0427
    110  CG        13.1480   46.1970   -2.1140 C.3    99  MET99       0.0599
    111  SD        14.3580   46.6020   -0.8800 S.3    99  MET99      -0.1393
    112  CE        14.9500   44.9810   -0.3880 C.3    99  MET99       0.0692
    113  N         15.9720   47.7220   -5.8790 N.am  100  THR100     -0.1951
    114  CA        16.4840   47.6550   -7.2440 C.3   100  THR100      0.1897
    115  C         16.8360   46.3030   -7.8020 C.2   100  THR100      0.2313
    116  O         16.7650   46.1120   -9.0090 O.2   100  THR100     -0.2863
    117  CB        17.7170   48.5400   -7.3990 C.3   100  THR100      0.1794
    118  OG1       18.6310   48.2610   -6.3270 O.3   100  THR100     -0.2208
    119  CG2       17.3130   50.0200   -7.3770 C.3   100  THR100      0.0378
    120  N         15.2430   43.4220   -7.2970 N.3   102  GLY102     -0.1210
    121  CA        14.1110   42.5190   -7.4470 C.3   102  GLY102      0.1956
    122  C         13.9210   41.4850   -6.3480 C.2   102  GLY102      0.2611
    123  O         14.4810   41.6190   -5.2520 O.2   102  GLY102     -0.2717
    124  N         13.1260   40.4530   -6.6340 N.am  103  ASP103     -0.1973
    125  CA        12.8700   39.4050   -5.6560 C.3   103  ASP103      0.1709
    126  C         14.0670   38.4880   -5.5450 C.2   103  ASP103      0.2293
    127  O         14.8270   38.3290   -6.4920 O.2   103  ASP103     -0.2864
    128  CB        11.6480   38.5850   -6.0470 C.3   103  ASP103      0.1436
    129  CG        11.8250   37.8860   -7.3690 C.2   103  ASP103      0.3671
    130  OD1       11.7570   38.5760   -8.4020 O.co2 103  ASP103     -0.2456
    131  OD2       12.0410   36.6540   -7.3760 O.co2 103  ASP103     -0.2456
    132  N         10.8610   33.9540   -3.7630 N.3   151  ARG151     -0.1231
    133  CA        10.1440   34.8720   -4.6110 C.3   151  ARG151      0.1694
    134  C          9.4640   35.9980   -3.8230 C.2   151  ARG151      0.2592
    135  O          9.1530   37.0500   -4.3940 O.2   151  ARG151     -0.2718
    136  CB         9.1060   34.1090   -5.4350 C.3   151  ARG151      0.0321
    137  CG         7.8270   33.7540   -4.6870 C.3   151  ARG151      0.0489
    138  CD         6.8070   33.1110   -5.6100 C.3   151  ARG151      0.2205
    139  NE         5.4460   33.0760   -5.0630 N.pl3 151  ARG151     -0.0865
    140  CZ         5.1010   32.5470   -3.8850 C.cat 151  ARG151      0.5346
    141  NH1        6.0170   32.0000   -3.0860 N.pl3 151  ARG151      0.1354
    142  NH2        3.8220   32.5430   -3.5190 N.pl3 151  ARG151      0.1354
    143  N          9.2350   35.7860   -2.5250 N.am  152  ASN152     -0.1974
    144  CA         8.5600   36.7860   -1.6980 C.3   152  ASN152      0.1688
    145  C          9.4850   37.6370   -0.8620 C.2   152  ASN152      0.2292
    146  O          9.0520   38.3350    0.0540 O.2   152  ASN152     -0.2864
    147  CB         7.5130   36.1330   -0.8000 C.3   152  ASN152      0.1181
    148  CG         6.2890   35.6930   -1.5700 C.2   152  ASN152      0.2629
    149  OD1        5.7940   36.4250   -2.4370 O.2   152  ASN152     -0.2716
    150  ND2        5.7810   34.5020   -1.2600 N.am  152  ASN152     -0.0877
    151  N         12.8020   40.4390   -1.1730 N.3   154  MET154     -0.1245
    152  CA        13.3330   41.4020   -2.1240 C.3   154  MET154      0.1570
    153  C         14.8050   41.6710   -1.8580 C.2   154  MET154      0.2261
    154  O         15.2900   41.4820   -0.7350 O.2   154  MET154     -0.2867
    155  CB        12.5610   42.7190   -2.0310 C.3   154  MET154      0.0387
    156  CG        11.1080   42.6310   -2.4530 C.3   154  MET154      0.0595
    157  SD        10.9480   42.1500   -4.1890 S.3   154  MET154     -0.1393
    158  CE        11.4280   43.6520   -5.0400 C.3   154  MET154      0.0692
    159  N          6.5360   43.1850    0.7230 N.3   165  ASP165     -0.1239
    160  CA         5.2370   43.5820    1.2490 C.3   165  ASP165      0.1674
    161  C          4.2990   42.3920    1.0720 C.2   165  ASP165      0.2266
    162  O          4.4720   41.5810    0.1590 O.2   165  ASP165     -0.2867
    163  CB         4.7010   44.8270    0.5140 C.3   165  ASP165      0.1410
    164  CG         4.4920   44.5980   -0.9840 C.2   165  ASP165      0.3668
    165  OD1        3.7030   43.7070   -1.3670 O.co2 165  ASP165     -0.2456
    166  OD2        5.1140   45.3200   -1.7840 O.co2 165  ASP165     -0.2456
    167  N         -1.7650   35.0640    0.3450 N.3   176  LYS176     -0.1245
    168  CA        -2.8300   35.4380   -0.5910 C.3   176  LYS176      0.1561
    169  C         -2.6730   34.6310   -1.8690 C.2   176  LYS176      0.2260
    170  O         -1.6110   34.6360   -2.4920 O.2   176  LYS176     -0.2867
    171  CB        -2.7910   36.9400   -0.9450 C.3   176  LYS176      0.0271
    172  CG        -1.6260   37.3780   -1.8530 C.3   176  LYS176      0.0035
    173  CD        -2.0600   38.3630   -2.9570 C.3   176  LYS176      0.0206
    174  CE        -2.6400   37.6270   -4.1750 C.3   176  LYS176      0.1093
    175  NZ        -3.0220   38.5410   -5.3110 N.3   176  LYS176     -0.1314
@<TRIPOS>BOND
     1    20    19    2
     2    17    18    1
     3    17    14    1
     4    19    18    1
     5    19    21   am
     6    13    14    1
     7    13    11   am
     8    14    15    1
     9    10     9    1
    10    10    11    1
    11     4     3    2
    12     1     2    1
    13     9     3   am
    14     3     2    1
    15    11    12    2
    16     2     5    1
    17    15    16    2
    18    15    22   am
    19    46    45    2
    20    43    44    1
    21    22    23    1
    22    25    24    2
    23    45    44    1
    24     5     6    1
    25     8     6    1
    26    35    34    2
    27     6     7    1
    28    44    47    1
    29    34    33    1
    30    24    23    1
    31    24    26   am
    32    29    28    2
    33    47    49    1
    34    47    48    1
    35    28    27    1
    36    28    32   am
    37    33    32    1
    38    33    36    1
    39    26    27    1
    40    27    30    1
    41   116   115    2
    42    36    37    1
    43   130   129   ar
    44    30    31    1
    45    57    56    1
    46    57    58    2
    47   115   114    1
    48    56    55    1
    49    56    59    1
    50   121   120    1
    51   121   122    1
    52   117   119    1
    53   117   114    1
    54   117   118    1
    55   131   129   ar
    56   129   128    1
    57    37    39   ar
    58    37    38   ar
    59   114   113    1
    60    39    41   ar
    61   103   102    1
    62   124   122   am
    63   124   125    1
    64   104   102    1
    65   127   126    2
    66    38    40   ar
    67   122   123    2
    68    59    60    1
    69    51    52    1
    70    51    54    1
    71    51    50    1
    72    52    53    2
    73    41    42   ar
    74   108   107    2
    75   102   101    1
    76   128   125    1
    77   113   107   am
    78    60    61    1
    79    61    62    1
    80   125   126    1
    81   138   139    1
    82   138   137    1
    83   107   106    1
    84   136   137    1
    85   136   133    1
    86    40    42   ar
    87   175   174    1
    88   139   140    2
    89   158   157    1
    90   133   134    1
    91   133   132    1
    92   101    98    1
    93   135   134    2
    94    62    63    1
    95   157   156    1
    96   174   173    1
    97   105   106    1
    98   105    99   am
    99   106   109    1
   100   140   142    1
   101   140   141    1
   102   134   143   am
   103    98    99    1
   104    98    97    1
   105    99   100    2
   106   109   110    1
   107   173   172    1
   108   143   144    1
   109   170   169    2
   110    83    82    2
   111   156   155    1
   112    97    90   am
   113   149   148    2
   114    80    81    1
   115    91    90    2
   116   152   155    1
   117   152   153    1
   118   152   151    1
   119   110   111    1
   120    85    84    1
   121    85    86    1
   122    84    81    1
   123   169   168    1
   124    71    70   ar
   125   153   154    2
   126   172   171    1
   127   166   164   ar
   128    90    89    1
   129    72    70   ar
   130   144   145    1
   131   144   147    1
   132   148   150   am
   133   148   147    1
   134    82    81    1
   135    82    88   am
   136   165   164   ar
   137    70    69    1
   138   164   163    1
   139   171   168    1
   140   111   112    1
   141   145   146    2
   142   168   167    1
   143    88    89    1
   144    89    92    1
   145    86    87    1
   146    68    69    1
   147    68    65    1
   148   162   161    2
   149    78    77    1
   150   163   160    1
   151   159   160    1
   152    92    93    1
   153    79    77    1
   154    93    94    1
   155   161   160    1
   156    64    65    1
   157    65    66    1
   158    77    74    1
   159    66    67    2
   160    94    95   ar
   161    94    96   ar
   162    74    75    1
   163    74    73    1
   164    75    76    2
