@<TRIPOS>MOLECULE
tmp/1jqiA01.pdb
 213 205 0 0 0
SMALL
GASTEIGER

@<TRIPOS>ATOM
      1  N        -44.5440  100.4380   17.7210 N.3    91  VAL91      -0.1245
      2  CA       -43.2690  101.0680   17.4370 C.3    91  VAL91       0.1561
      3  C        -43.4400  102.5210   16.9950 C.2    91  VAL91       0.2260
      4  O        -42.7790  103.4110   17.5320 O.2    91  VAL91      -0.2867
      5  CB       -42.4900  100.2960   16.3530 C.3    91  VAL91       0.0252
      6  CG1      -41.2420  101.0690   15.9580 C.3    91  VAL91       0.0019
      7  CG2      -42.0960   98.9200   16.8790 C.3    91  VAL91       0.0019
      8  N        -42.1240  104.2800   20.3460 N.3    95  LEU95      -0.1245
      9  CA       -40.7020  104.4180   20.0510 C.3    95  LEU95       0.1561
     10  C        -40.2550  105.5060   19.0750 C.2    95  LEU95       0.2260
     11  O        -39.1780  106.0860   19.2440 O.2    95  LEU95      -0.2867
     12  CB       -40.1510  103.0610   19.5970 C.3    95  LEU95       0.0270
     13  CG       -39.7340  102.0570   20.6870 C.3    95  LEU95       0.0019
     14  CD1      -40.7030  102.0730   21.8470 C.3    95  LEU95       0.0001
     15  CD2      -39.6490  100.6690   20.0820 C.3    95  LEU95       0.0001
     16  N        -36.9750  102.4800   15.6500 N.3   125  PHE125     -0.1241
     17  CA       -36.1240  102.8140   16.7890 C.3   125  PHE125      0.1605
     18  C        -34.8630  101.9560   16.7370 C.2   125  PHE125      0.2264
     19  O        -34.9400  100.7250   16.7030 O.2   125  PHE125     -0.2867
     20  CB       -36.9620  102.5440   18.0530 C.3   125  PHE125      0.0534
     21  CG       -36.3090  102.9300   19.3510 C.ar  125  PHE125     -0.0203
     22  CD1      -35.7610  101.9550   20.1800 C.ar  125  PHE125     -0.0042
     23  CD2      -36.3590  104.2420   19.8070 C.ar  125  PHE125     -0.0042
     24  CE1      -35.2870  102.2790   21.4450 C.ar  125  PHE125     -0.0003
     25  CE2      -35.8870  104.5770   21.0720 C.ar  125  PHE125     -0.0003
     26  CZ       -35.3530  103.5920   21.8940 C.ar  125  PHE125     -0.0000
     27  N        -31.5970  101.1680   18.7980 N.3   127  LEU127     -0.1231
     28  CA       -30.7600  101.2170   19.9890 C.3   127  LEU127      0.1693
     29  C        -29.8090  100.0250   20.0550 C.2   127  LEU127      0.2593
     30  O        -28.6150  100.1870   20.3090 O.2   127  LEU127     -0.2718
     31  CB       -31.6380  101.2270   21.2420 C.3   127  LEU127      0.0284
     32  CG       -30.9240  101.1050   22.5940 C.3   127  LEU127      0.0019
     33  CD1      -29.9390  102.2550   22.7700 C.3   127  LEU127      0.0001
     34  CD2      -31.9590  101.0960   23.7160 C.3   127  LEU127      0.0001
     35  N        -30.3460   98.8290   19.8230 N.am  128  SER128     -0.1938
     36  CA       -29.5600   97.6000   19.8840 C.3   128  SER128      0.2055
     37  C        -28.5230   97.4650   18.7820 C.2   128  SER128      0.2643
     38  O        -28.6800   98.0110   17.6920 O.2   128  SER128     -0.2714
     39  CB       -30.4770   96.3680   19.8410 C.3   128  SER128      0.2130
     40  OG       -31.4080   96.3680   20.9110 O.3   128  SER128     -0.2179
     41  N        -27.4680   96.7130   19.0840 N.am  129  GLU129     -0.1963
     42  CA       -26.3900   96.4490   18.1410 C.3   129  GLU129      0.1718
     43  C        -26.0610   94.9560   18.2310 C.2   129  GLU129      0.2458
     44  O        -26.4920   94.2790   19.1650 O.2   129  GLU129     -0.2730
     45  CB       -25.1640   97.3020   18.4920 C.3   129  GLU129      0.0428
     46  CG       -25.3930   98.8070   18.3420 C.3   129  GLU129      0.1163
     47  CD       -24.1850   99.6450   18.7510 C.2   129  GLU129      0.3649
     48  OE1      -24.2750  100.8900   18.7000 O.co2 129  GLU129     -0.2457
     49  OE2      -23.1440   99.0650   19.1230 O.co2 129  GLU129     -0.2457
     50  N        -25.2940   94.4200   17.2640 N.am  130  PRO130     -0.2727
     51  CA       -24.9480   92.9920   17.2960 C.3   130  PRO130      0.1402
     52  C        -24.2770   92.5560   18.5990 C.2   130  PRO130      0.2269
     53  O        -24.6020   91.5050   19.1610 O.2   130  PRO130     -0.2865
     54  CB       -24.0130   92.8340   16.0970 C.3   130  PRO130      0.0296
     55  CG       -24.4980   93.8950   15.1410 C.3   130  PRO130      0.0237
     56  CD       -24.7420   95.0720   16.0620 C.3   130  PRO130      0.0939
     57  N        -24.4290   94.1030   21.5440 N.3   132  ASN132     -0.1225
     58  CA       -25.1390   94.4460   22.7690 C.3   132  ASN132      0.1785
     59  C        -26.6040   94.8270   22.5710 C.2   132  ASN132      0.2598
     60  O        -26.9480   95.5840   21.6590 O.2   132  ASN132     -0.2718
     61  CB       -24.4200   95.5890   23.4910 C.3   132  ASN132      0.1169
     62  CG       -24.5230   96.9080   22.7480 C.2   132  ASN132      0.2627
     63  OD1      -24.0640   97.0370   21.6130 O.2   132  ASN132     -0.2716
     64  ND2      -25.1320   97.8970   23.3880 N.am  132  ASN132     -0.0877
     65  N        -27.4520   94.2920   23.4470 N.am  133  GLY133     -0.1942
     66  CA       -28.8760   94.5710   23.4130 C.3   133  GLY133      0.2014
     67  C        -29.3170   94.9480   24.8160 C.2   133  GLY133      0.2640
     68  O        -29.8200   96.0480   25.0450 O.2   133  GLY133     -0.2714
     69  N        -29.1210   94.0330   25.7640 N.am  134  SER134     -0.1935
     70  CA       -29.4840   94.2890   27.1530 C.3   134  SER134      0.2055
     71  C        -28.5650   95.3810   27.6740 C.2   134  SER134      0.2643
     72  O        -29.0000   96.3260   28.3320 O.2   134  SER134     -0.2714
     73  CB       -29.2960   93.0280   27.9990 C.3   134  SER134      0.2130
     74  OG       -30.1560   91.9840   27.5880 O.3   134  SER134     -0.2179
     75  N        -27.2790   95.2270   27.3760 N.am  135  ASP135     -0.1971
     76  CA       -26.2590   96.1830   27.7880 C.3   135  ASP135      0.1709
     77  C        -26.3890   97.3700   26.8410 C.2   135  ASP135      0.2293
     78  O        -25.5600   97.5670   25.9500 O.2   135  ASP135     -0.2864
     79  CB       -24.8750   95.5400   27.6580 C.3   135  ASP135      0.1436
     80  CG       -23.7880   96.3310   28.3610 C.2   135  ASP135      0.3671
     81  OD1      -24.0640   97.4540   28.8450 O.co2 135  ASP135     -0.2456
     82  OD2      -22.6500   95.8230   28.4220 O.co2 135  ASP135     -0.2456
     83  N        -28.5870   96.7260   15.2140 N.3   157  ALA157     -0.1231
     84  CA       -29.1960   95.4120   14.9730 C.3   157  ALA157      0.1694
     85  C        -30.6560   95.2490   15.3900 C.2   157  ALA157      0.2592
     86  O        -31.1540   95.9570   16.2600 O.2   157  ALA157     -0.2718
     87  CB       -28.3510   94.3200   15.6390 C.3   157  ALA157      0.0304
     88  N        -31.3210   94.2970   14.7430 N.am  158  TRP158     -0.1962
     89  CA       -32.7140   93.9670   15.0110 C.3   158  TRP158      0.1771
     90  C        -33.6900   95.1320   14.8770 C.2   158  TRP158      0.2619
     91  O        -34.5380   95.2940   15.7270 O.2   158  TRP158     -0.2715
     92  CB       -32.8810   93.3970   16.4300 C.3   158  TRP158      0.0590
     93  CG       -31.8330   92.4230   16.9000 C.ar  158  TRP158      0.0006
     94  CD1      -30.8000   92.6810   17.7620 C.ar  158  TRP158      0.0946
     95  CD2      -31.7290   91.0340   16.5550 C.ar  158  TRP158      0.0152
     96  NE1      -30.0630   91.5400   17.9760 N.ar  158  TRP158     -0.2442
     97  CE2      -30.6100   90.5140   17.2480 C.ar  158  TRP158      0.0810
     98  CE3      -32.4720   90.1770   15.7280 C.ar  158  TRP158      0.0012
     99  CZ2      -30.2180   89.1750   17.1390 C.ar  158  TRP158      0.0191
    100  CZ3      -32.0820   88.8470   15.6200 C.ar  158  TRP158      0.0001
    101  CH2      -30.9640   88.3590   16.3220 C.ar  158  TRP158      0.0015
    102  N        -33.6160   95.9290   13.8210 N.am  159  ILE159     -0.1963
    103  CA       -34.5460   97.0480   13.7270 C.3   159  ILE159      0.1727
    104  C        -35.9090   96.7000   13.1240 C.2   159  ILE159      0.2616
    105  O        -36.0170   96.3430   11.9540 O.2   159  ILE159     -0.2715
    106  CB       -33.9260   98.2060   12.9320 C.3   159  ILE159      0.0290
    107  CG1      -32.4690   98.4050   13.3660 C.3   159  ILE159      0.0022
    108  CG2      -34.7160   99.4860   13.1750 C.3   159  ILE159      0.0023
    109  CD1      -32.2790   98.5250   14.8800 C.3   159  ILE159      0.0001
    110  N        -36.9540   96.8150   13.9380 N.am  160  THR160     -0.1951
    111  CA       -38.3150   96.5320   13.4930 C.3   160  THR160      0.1897
    112  C        -38.7940   97.6810   12.6050 C.2   160  THR160      0.2313
    113  O        -38.5780   98.8460   12.9270 O.2   160  THR160     -0.2863
    114  CB       -39.2670   96.3840   14.7030 C.3   160  THR160      0.1794
    115  OG1      -38.8240   95.2970   15.5250 O.3   160  THR160     -0.2208
    116  CG2      -40.6900   96.1100   14.2430 C.3   160  THR160      0.0378
    117  N        -37.6060   84.8670   11.2750 N.3   203  LYS203     -0.1245
    118  CA       -37.8930   84.5950   12.6760 C.3   203  LYS203      0.1561
    119  C        -39.0620   83.6730   12.9920 C.2   203  LYS203      0.2260
    120  O        -39.8810   83.3520   12.1340 O.2   203  LYS203     -0.2867
    121  CB       -38.0480   85.9110   13.4430 C.3   203  LYS203      0.0271
    122  CG       -38.9720   86.9180   12.8170 C.3   203  LYS203      0.0035
    123  CD       -38.8600   88.2540   13.5430 C.3   203  LYS203      0.0206
    124  CE       -39.8280   89.2710   12.9790 C.3   203  LYS203      0.1093
    125  NZ       -39.5320   89.5950   11.5570 N.3   203  LYS203     -0.1314
    126  N        -44.2050   86.8740   14.7390 N.3   206  ILE206     -0.1245
    127  CA       -44.4550   88.2150   14.1940 C.3   206  ILE206      0.1561
    128  C        -43.7020   88.3780   12.8800 C.2   206  ILE206      0.2260
    129  O        -43.0350   89.3830   12.6350 O.2   206  ILE206     -0.2867
    130  CB       -44.0580   89.3510   15.1870 C.3   206  ILE206      0.0252
    131  CG1      -42.5860   89.2490   15.5810 C.3   206  ILE206      0.0019
    132  CG2      -44.9350   89.2840   16.4230 C.3   206  ILE206      0.0019
    133  CD1      -42.0860   90.5020   16.3220 C.3   206  ILE206      0.0001
    134  N        -37.3970   92.8340   10.2530 N.3   211  THR211     -0.1218
    135  CA       -36.3520   92.9550   11.2640 C.3   211  THR211      0.1862
    136  C        -35.0120   92.8630   10.5460 C.2   211  THR211      0.2287
    137  O        -34.7000   91.8440    9.9250 O.2   211  THR211     -0.2866
    138  CB       -36.4250   91.8200   12.3110 C.3   211  THR211      0.1770
    139  OG1      -37.7890   91.5900   12.6810 O.3   211  THR211     -0.2211
    140  CG2      -35.6340   92.2090   13.5630 C.3   211  THR211      0.0375
    141  N        -41.8890   86.2480   21.5350 N.3   360  ILE360     -0.1245
    142  CA       -41.0480   87.4340   21.3880 C.3   360  ILE360      0.1561
    143  C        -41.2940   88.4800   22.4750 C.2   360  ILE360      0.2260
    144  O        -40.3950   89.2450   22.8110 O.2   360  ILE360     -0.2867
    145  CB       -41.2270   88.1010   19.9820 C.3   360  ILE360      0.0252
    146  CG1      -40.1410   89.1480   19.7520 C.3   360  ILE360      0.0019
    147  CG2      -42.5720   88.7960   19.8890 C.3   360  ILE360      0.0019
    148  CD1      -38.7260   88.6140   19.8730 C.3   360  ILE360      0.0001
    149  N        -38.8640   88.7350   25.1830 N.3   363  ILE363     -0.1231
    150  CA       -37.5170   89.1500   24.8190 C.3   363  ILE363      0.1692
    151  C        -37.2850   90.6320   24.4770 C.2   363  ILE363      0.2592
    152  O        -36.5310   91.3180   25.1690 O.2   363  ILE363     -0.2718
    153  CB       -36.9950   88.2970   23.6410 C.3   363  ILE363      0.0266
    154  CG1      -37.0910   86.8140   23.9940 C.3   363  ILE363      0.0019
    155  CG2      -35.5430   88.6470   23.3410 C.3   363  ILE363      0.0020
    156  CD1      -36.9140   85.8860   22.7940 C.3   363  ILE363      0.0001
    157  N        -37.9240   91.1360   23.4250 N.am  364  TYR364     -0.1962
    158  CA       -37.6660   92.5170   23.0480 C.3   364  TYR364      0.1771
    159  C        -38.1820   93.6180   23.9650 C.2   364  TYR364      0.2619
    160  O        -39.1020   93.4170   24.7540 O.2   364  TYR364     -0.2715
    161  CB       -38.0600   92.7630   21.5830 C.3   364  TYR364      0.0574
    162  CG       -39.5110   92.6010   21.1770 C.ar  364  TYR364     -0.0198
    163  CD1      -39.8600   92.6560   19.8240 C.ar  364  TYR364     -0.0009
    164  CD2      -40.5350   92.4640   22.1140 C.ar  364  TYR364     -0.0009
    165  CE1      -41.1770   92.5910   19.4090 C.ar  364  TYR364      0.0417
    166  CE2      -41.8750   92.3950   21.7050 C.ar  364  TYR364      0.0417
    167  CZ       -42.1820   92.4640   20.3430 C.ar  364  TYR364      0.1957
    168  OH       -43.4800   92.4300   19.8980 O.3   364  TYR364     -0.2866
    169  N        -37.5400   94.7780   23.8480 N.am  365  GLU365     -0.1963
    170  CA       -37.7980   95.9670   24.6590 C.3   365  GLU365      0.1733
    171  C        -37.4140   95.6500   26.0960 C.2   365  GLU365      0.2617
    172  O        -37.9580   96.2090   27.0430 O.2   365  GLU365     -0.2715
    173  CB       -39.2590   96.4260   24.5680 C.3   365  GLU365      0.0429
    174  CG       -39.6560   96.8320   23.1550 C.3   365  GLU365      0.1163
    175  CD       -40.7110   97.9280   23.0890 C.2   365  GLU365      0.3649
    176  OE1      -41.2980   98.1070   22.0000 O.co2 365  GLU365     -0.2457
    177  OE2      -40.9480   98.6130   24.1050 O.co2 365  GLU365     -0.2457
    178  N        -36.4460   94.7520   26.2410 N.am  366  GLY366     -0.1940
    179  CA       -35.9950   94.3560   27.5590 C.3   366  GLY366      0.2014
    180  C        -36.4920   92.9700   27.9220 C.2   366  GLY366      0.2639
    181  O        -37.6960   92.7530   28.0690 O.2   366  GLY366     -0.2714
    182  N        -35.5640   92.0280   28.0570 N.am  367  THR367     -0.1950
    183  CA       -35.9170   90.6600   28.4100 C.3   367  THR367      0.1897
    184  C        -36.5290   90.6260   29.8050 C.2   367  THR367      0.2313
    185  O        -36.3700   91.5610   30.5890 O.2   367  THR367     -0.2863
    186  CB       -34.6910   89.7380   28.4210 C.3   367  THR367      0.1794
    187  OG1      -33.7770   90.1880   29.4240 O.3   367  THR367     -0.2208
    188  CG2      -33.9990   89.7290   27.0610 C.3   367  THR367      0.0378
    189  N        -35.5980   89.0590   32.3180 N.3   369  GLU369     -0.1231
    190  CA       -34.5620   89.1700   33.3450 C.3   369  GLU369      0.1699
    191  C        -34.2780   90.6380   33.6490 C.2   369  GLU369      0.2592
    192  O        -34.1000   91.0130   34.8040 O.2   369  GLU369     -0.2718
    193  CB       -33.2600   88.4890   32.8980 C.3   369  GLU369      0.0402
    194  CG       -33.3310   86.9740   32.7440 C.3   369  GLU369      0.1161
    195  CD       -34.3110   86.5400   31.6720 C.2   369  GLU369      0.3649
    196  OE1      -34.2650   87.1040   30.5600 O.co2 369  GLU369     -0.2457
    197  OE2      -35.1240   85.6330   31.9370 O.co2 369  GLU369     -0.2457
    198  N        -34.2430   91.4640   32.6050 N.am  370  ILE370     -0.1980
    199  CA       -33.9820   92.8900   32.7570 C.3   370  ILE370      0.1595
    200  C        -35.1500   93.6120   33.4200 C.2   370  ILE370      0.2287
    201  O        -34.9420   94.5560   34.1890 O.2   370  ILE370     -0.2864
    202  CB       -33.6580   93.5530   31.3820 C.3   370  ILE370      0.0276
    203  CG1      -32.1480   93.5060   31.1200 C.3   370  ILE370      0.0022
    204  CG2      -34.1180   95.0080   31.3640 C.3   370  ILE370      0.0022
    205  CD1      -31.5700   92.1220   31.0510 C.3   370  ILE370      0.0001
    206  N        -34.7760   93.1230   37.0470 N.3   373  LEU373     -0.1245
    207  CA       -33.7330   93.9470   37.6520 C.3   373  LEU373      0.1561
    208  C        -34.2730   95.3530   37.8880 C.2   373  LEU373      0.2260
    209  O        -34.0470   95.9520   38.9430 O.2   373  LEU373     -0.2867
    210  CB       -32.4980   94.0200   36.7510 C.3   373  LEU373      0.0270
    211  CG       -31.6590   92.7480   36.6630 C.3   373  LEU373      0.0019
    212  CD1      -30.3900   93.0310   35.8680 C.3   373  LEU373      0.0001
    213  CD2      -31.3100   92.2720   38.0730 C.3   373  LEU373      0.0001
@<TRIPOS>BOND
     1   137   136    2
     2   134   135    1
     3   136   135    1
     4   135   138    1
     5   117   118    1
     6   125   124    1
     7   105   104    2
     8   120   119    2
     9   138   139    1
    10   138   140    1
    11   112   113    2
    12   112   111    1
    13   129   128    2
    14   118   119    1
    15   118   121    1
    16   122   121    1
    17   122   123    1
    18   128   127    1
    19   106   108    1
    20   106   107    1
    21   106   103    1
    22   124   123    1
    23   104   103    1
    24   104   110   am
    25   107   109    1
    26   111   110    1
    27   111   114    1
    28   103   102    1
    29   102    90   am
    30   127   126    1
    31   127   130    1
    32   116   114    1
    33   114   115    1
    34    88    89    1
    35    88    85   am
    36    90    89    1
    37    90    91    2
    38    84    83    1
    39    84    85    1
    40    84    87    1
    41    89    92    1
    42    55    56    1
    43    55    54    1
    44   130   131    1
    45   130   132    1
    46    85    86    2
    47   131   133    1
    48   100    98   ar
    49   100   101   ar
    50    16    17    1
    51    98    95   ar
    52     6     5    1
    53    56    50    1
    54    54    51    1
    55   101    99   ar
    56     5     7    1
    57     5     2    1
    58    92    93    1
    59    95    93   ar
    60    95    97   ar
    61    19    18    2
    62    18    17    1
    63    17    20    1
    64    93    94   ar
    65     3     2    1
    66     3     4    2
    67    99    97   ar
    68    97    96   ar
    69    50    51    1
    70    50    43   am
    71    51    52    1
    72     2     1    1
    73    38    37    2
    74    94    96   ar
    75    20    21    1
    76    42    43    1
    77    42    45    1
    78    42    41    1
    79    43    44    2
    80    46    45    1
    81    46    47    1
    82    52    53    2
    83    48    47   ar
    84    47    49   ar
    85    37    41   am
    86    37    36    1
    87    27    28    1
    88    10    11    2
    89    10     9    1
    90    21    23   ar
    91    21    22   ar
    92   165   163   ar
    93   165   167   ar
    94    12     9    1
    95    12    13    1
    96   146   148    1
    97   146   145    1
    98    23    25   ar
    99    35    36    1
   100    35    29   am
   101   163   162   ar
   102    39    36    1
   103    39    40    1
   104   147   145    1
   105   168   167    1
   106   145   142    1
   107    28    29    1
   108    28    31    1
   109     9     8    1
   110    29    30    2
   111    15    13    1
   112    22    24   ar
   113   167   166   ar
   114    13    14    1
   115    25    26   ar
   116   162   161    1
   117   162   164   ar
   118    31    32    1
   119   142   141    1
   120   142   143    1
   121    24    26   ar
   122    57    58    1
   123   161   158    1
   124    63    62    2
   125    60    59    2
   126   166   164   ar
   127   176   175   ar
   128   143   144    2
   129    59    58    1
   130    59    65   am
   131    32    33    1
   132    32    34    1
   133    62    64   am
   134    62    61    1
   135    58    61    1
   136   156   154    1
   137   158   157    1
   138   158   159    1
   139   175   174    1
   140   175   177   ar
   141   174   173    1
   142   155   153    1
   143    66    65    1
   144    66    67    1
   145   157   151   am
   146   153   154    1
   147   153   150    1
   148   169   159   am
   149   169   170    1
   150   159   160    2
   151   151   150    1
   152   151   152    2
   153   173   170    1
   154   170   171    1
   155    67    68    2
   156    67    69   am
   157   150   149    1
   158    69    70    1
   159    78    77    2
   160   171   178   am
   161   171   172    2
   162   178   179    1
   163    77    76    1
   164   188   186    1
   165    70    71    1
   166    70    73    1
   167    75    71   am
   168    75    76    1
   169   179   180    1
   170    74    73    1
   171    79    76    1
   172    79    80    1
   173    71    72    2
   174   180   182   am
   175   180   181    2
   176   182   183    1
   177    80    82   ar
   178    80    81   ar
   179   183   186    1
   180   183   184    1
   181   186   187    1
   182   184   185    2
   183   196   195   ar
   184   205   203    1
   185   203   202    1
   186   204   202    1
   187   202   199    1
   188   195   197   ar
   189   195   194    1
   190   189   190    1
   191   198   199    1
   192   198   191   am
   193   194   193    1
   194   199   200    1
   195   193   190    1
   196   190   191    1
   197   200   201    2
   198   191   192    2
   199   212   211    1
   200   211   210    1
   201   211   213    1
   202   210   207    1
   203   206   207    1
   204   207   208    1
   205   208   209    2
