@<TRIPOS>MOLECULE
tmp/1jqiA02.pdb
 150 146 0 0 0
SMALL
GASTEIGER

@<TRIPOS>ATOM
      1  N        -63.2980   76.1400   21.3510 N.3   266  TYR266     -0.1241
      2  CA       -62.9900   74.7740   20.9580 C.3   266  TYR266      0.1605
      3  C        -63.4260   73.7620   22.0190 C.2   266  TYR266      0.2264
      4  O        -63.9730   72.7060   21.6980 O.2   266  TYR266     -0.2867
      5  CB       -61.4890   74.6230   20.7080 C.3   266  TYR266      0.0534
      6  CG       -61.1200   73.2990   20.0760 C.ar  266  TYR266     -0.0201
      7  CD1      -61.2230   73.1140   18.6950 C.ar  266  TYR266     -0.0009
      8  CD2      -60.7020   72.2240   20.8590 C.ar  266  TYR266     -0.0009
      9  CE1      -60.9190   71.8880   18.1050 C.ar  266  TYR266      0.0417
     10  CE2      -60.3970   70.9840   20.2830 C.ar  266  TYR266      0.0417
     11  CZ       -60.5090   70.8270   18.9050 C.ar  266  TYR266      0.1957
     12  OH       -60.2200   69.6110   18.3330 O.3   266  TYR266     -0.2866
     13  N        -65.8070   70.6070   21.1910 N.3   270  ARG270     -0.1231
     14  CA       -65.1250   69.3230   21.1140 C.3   270  ARG270      0.1694
     15  C        -65.6100   68.3670   22.1880 C.2   270  ARG270      0.2592
     16  O        -65.6100   68.6990   23.3710 O.2   270  ARG270     -0.2718
     17  CB       -63.6180   69.5080   21.2600 C.3   270  ARG270      0.0321
     18  CG       -62.8290   68.2010   21.2840 C.3   270  ARG270      0.0489
     19  CD       -62.8810   67.4790   19.9530 C.3   270  ARG270      0.2205
     20  NE       -61.9060   66.3930   19.8910 N.pl3 270  ARG270     -0.0865
     21  CZ       -61.6470   65.6800   18.8000 C.cat 270  ARG270      0.5346
     22  NH1      -62.2940   65.9300   17.6700 N.pl3 270  ARG270      0.1354
     23  NH2      -60.7190   64.7300   18.8300 N.pl3 270  ARG270      0.1354
     24  N        -66.0190   67.1740   21.7700 N.am  271  HIS271     -0.1962
     25  CA       -66.4790   66.1670   22.7140 C.3   271  HIS271      0.1787
     26  C        -65.4280   65.0890   22.9260 C.2   271  HIS271      0.2620
     27  O        -64.6460   64.7840   22.0350 O.2   271  HIS271     -0.2715
     28  CB       -67.7820   65.5240   22.2280 C.3   271  HIS271      0.0785
     29  CG       -68.9650   66.4390   22.2960 C.ar  271  HIS271      0.0821
     30  ND1      -70.1760   66.0510   22.8270 N.ar  271  HIS271     -0.2267
     31  CD2      -69.1170   67.7300   21.9150 C.ar  271  HIS271      0.1154
     32  CE1      -71.0240   67.0630   22.7710 C.ar  271  HIS271      0.1986
     33  NE2      -70.4060   68.0940   22.2230 N.ar  271  HIS271     -0.2212
     34  N        -65.4130   64.5330   24.1300 N.am  272  ALA272     -0.1963
     35  CA       -64.4910   63.4720   24.5050 C.3   272  ALA272      0.1728
     36  C        -65.1510   62.7640   25.6720 C.2   272  ALA272      0.2616
     37  O        -65.5790   63.4030   26.6340 O.2   272  ALA272     -0.2715
     38  CB       -63.1480   64.0490   24.9310 C.3   272  ALA272      0.0334
     39  N        -65.2460   61.4450   25.5800 N.am  273  PHE273     -0.1974
     40  CA       -65.8710   60.6520   26.6280 C.3   273  PHE273      0.1639
     41  C        -67.3330   61.0430   26.8430 C.2   273  PHE273      0.2290
     42  O        -67.8190   61.0850   27.9730 O.2   273  PHE273     -0.2864
     43  CB       -65.0900   60.7750   27.9420 C.3   273  PHE273      0.0560
     44  CG       -63.6720   60.2860   27.8480 C.ar  273  PHE273     -0.0200
     45  CD1      -62.6330   61.1670   27.5570 C.ar  273  PHE273     -0.0042
     46  CD2      -63.3800   58.9330   28.0110 C.ar  273  PHE273     -0.0042
     47  CE1      -61.3240   60.7090   27.4280 C.ar  273  PHE273     -0.0003
     48  CE2      -62.0760   58.4620   27.8840 C.ar  273  PHE273     -0.0003
     49  CZ       -61.0440   59.3530   27.5910 C.ar  273  PHE273     -0.0000
     50  N        -65.4440   69.2650   26.3180 N.3   277  LEU277     -0.1245
     51  CA       -64.2380   69.2890   27.1450 C.3   277  LEU277      0.1561
     52  C        -64.4610   70.1570   28.3920 C.2   277  LEU277      0.2260
     53  O        -63.8200   69.9520   29.4230 O.2   277  LEU277     -0.2867
     54  CB       -63.0470   69.8290   26.3400 C.3   277  LEU277      0.0270
     55  CG       -62.6600   69.0480   25.0770 C.3   277  LEU277      0.0019
     56  CD1      -61.4520   69.7140   24.4030 C.3   277  LEU277      0.0001
     57  CD2      -62.3550   67.6030   25.4350 C.3   277  LEU277      0.0001
     58  N        -64.9170   68.5090   31.8180 N.3   280  LEU280     -0.1245
     59  CA       -63.7760   67.9160   32.5010 C.3   280  LEU280      0.1561
     60  C        -63.2460   68.9280   33.5180 C.2   280  LEU280      0.2260
     61  O        -62.9420   70.0660   33.1650 O.2   280  LEU280     -0.2867
     62  CB       -62.6950   67.5710   31.4760 C.3   280  LEU280      0.0270
     63  CG       -63.1280   66.5540   30.4160 C.3   280  LEU280      0.0019
     64  CD1      -62.1030   66.5080   29.2940 C.3   280  LEU280      0.0001
     65  CD2      -63.3010   65.1780   31.0630 C.3   280  LEU280      0.0001
     66  N        -60.4120   69.2360   34.9810 N.3   282  ASN282     -0.1225
     67  CA       -59.0950   69.7230   34.6000 C.3   282  ASN282      0.1785
     68  C        -59.1350   70.8820   33.6060 C.2   282  ASN282      0.2597
     69  O        -58.4180   71.8670   33.7750 O.2   282  ASN282     -0.2718
     70  CB       -58.2600   68.5790   34.0180 C.3   282  ASN282      0.1169
     71  CG       -57.0750   69.0790   33.2130 C.2   282  ASN282      0.2627
     72  OD1      -57.1280   69.1390   31.9800 O.2   282  ASN282     -0.2716
     73  ND2      -56.0040   69.4610   33.9070 N.am  282  ASN282     -0.0877
     74  N        -59.9560   70.7680   32.5660 N.am  283  ILE283     -0.1980
     75  CA       -60.0450   71.8370   31.5800 C.3   283  ILE283      0.1595
     76  C        -60.5740   73.1220   32.2230 C.2   283  ILE283      0.2287
     77  O        -60.1350   74.2220   31.8800 O.2   283  ILE283     -0.2864
     78  CB       -60.9290   71.4160   30.3660 C.3   283  ILE283      0.0276
     79  CG1      -60.0560   70.7700   29.2790 C.3   283  ILE283      0.0022
     80  CG2      -61.6170   72.6350   29.7550 C.3   283  ILE283      0.0022
     81  CD1      -59.2250   69.5890   29.7370 C.3   283  ILE283      0.0001
     82  N        -57.8110   74.9090   34.1220 N.3   286  LYS286     -0.1245
     83  CA       -56.8880   75.5510   33.1920 C.3   286  LYS286      0.1561
     84  C        -57.4430   76.9030   32.7630 C.2   286  LYS286      0.2260
     85  O        -56.7760   77.9320   32.8920 O.2   286  LYS286     -0.2867
     86  CB       -56.6750   74.6860   31.9450 C.3   286  LYS286      0.0271
     87  CG       -55.7510   73.4870   32.1190 C.3   286  LYS286      0.0035
     88  CD       -55.6340   72.7420   30.7880 C.3   286  LYS286      0.0206
     89  CE       -54.9170   71.4060   30.9170 C.3   286  LYS286      0.1093
     90  NZ       -53.4810   71.5300   31.2640 N.3   286  LYS286     -0.1314
     91  N        -52.5310   73.0350   24.0140 N.3   338  GLN338     -0.1231
     92  CA       -52.7910   71.8190   24.7820 C.3   338  GLN338      0.1698
     93  C        -54.2630   71.4190   24.7450 C.2   338  GLN338      0.2592
     94  O        -54.5960   70.2590   24.4850 O.2   338  GLN338     -0.2718
     95  CB       -52.3600   72.0040   26.2390 C.3   338  GLN338      0.0381
     96  CG       -52.2220   70.6910   27.0100 C.3   338  GLN338      0.0905
     97  CD       -51.1250   69.8060   26.4370 C.2   338  GLN338      0.2608
     98  OE1      -50.2880   70.2730   25.6620 O.2   338  GLN338     -0.2717
     99  NE2      -51.1140   68.5310   26.8260 N.am  338  GLN338     -0.0878
    100  N        -55.1410   72.3790   25.0180 N.am  339  ILE339     -0.1966
    101  CA       -56.5730   72.1200   25.0130 C.3   339  ILE339      0.1727
    102  C        -57.0690   71.6800   23.6310 C.2   339  ILE339      0.2616
    103  O        -57.9990   70.8900   23.5300 O.2   339  ILE339     -0.2715
    104  CB       -57.3530   73.3650   25.4960 C.3   339  ILE339      0.0290
    105  CG1      -57.1310   73.5420   27.0000 C.3   339  ILE339      0.0022
    106  CG2      -58.8460   73.2160   25.1950 C.3   339  ILE339      0.0023
    107  CD1      -57.6920   74.8340   27.5680 C.3   339  ILE339      0.0001
    108  N        -56.4410   72.1800   22.5710 N.am  340  LEU340     -0.1963
    109  CA       -56.8310   71.8050   21.2140 C.3   340  LEU340      0.1728
    110  C        -56.2940   70.4290   20.8230 C.2   340  LEU340      0.2617
    111  O        -56.7650   69.8260   19.8640 O.2   340  LEU340     -0.2715
    112  CB       -56.3350   72.8460   20.1970 C.3   340  LEU340      0.0311
    113  CG       -57.3430   73.8990   19.7160 C.3   340  LEU340      0.0022
    114  CD1      -57.8590   74.7200   20.8970 C.3   340  LEU340      0.0001
    115  CD2      -56.6790   74.8030   18.6830 C.3   340  LEU340      0.0001
    116  N        -55.3110   69.9380   21.5690 N.am  341  GLY341     -0.1940
    117  CA       -54.7340   68.6410   21.2650 C.3   341  GLY341      0.2014
    118  C        -54.0150   68.6500   19.9300 C.2   341  GLY341      0.2639
    119  O        -53.2940   69.5980   19.6170 O.2   341  GLY341     -0.2714
    120  N        -54.2110   67.5980   19.1390 N.am  342  GLY342     -0.1939
    121  CA       -53.5620   67.5170   17.8430 C.3   342  GLY342      0.2014
    122  C        -53.8340   68.7450   16.9960 C.2   342  GLY342      0.2638
    123  O        -52.9410   69.2500   16.3080 O.2   342  GLY342     -0.2714
    124  N        -55.0690   69.2290   17.0480 N.am  343  MET343     -0.1976
    125  CA       -55.4630   70.4160   16.2930 C.3   343  MET343      0.1605
    126  C        -54.6490   71.6540   16.6720 C.2   343  MET343      0.2287
    127  O        -54.5630   72.6090   15.8950 O.2   343  MET343     -0.2864
    128  CB       -56.9480   70.7110   16.5070 C.3   343  MET343      0.0413
    129  CG       -57.8750   69.8360   15.6830 C.3   343  MET343      0.0598
    130  SD       -57.6720   70.1170   13.9000 S.3   343  MET343     -0.1393
    131  CE       -57.9370   68.4620   13.2730 C.3   343  MET343      0.0692
    132  N        -51.4560   71.7200   17.0960 N.3   345  TYR345     -0.1227
    133  CA       -50.1230   71.6410   16.5090 C.3   345  TYR345      0.1736
    134  C        -50.0550   71.9320   15.0050 C.2   345  TYR345      0.2595
    135  O        -48.9640   72.0850   14.4480 O.2   345  TYR345     -0.2718
    136  CB       -49.5500   70.2490   16.7730 C.3   345  TYR345      0.0548
    137  CG       -48.0460   70.1760   16.7480 C.ar  345  TYR345     -0.0200
    138  CD1      -47.2810   70.8580   17.6970 C.ar  345  TYR345     -0.0009
    139  CD2      -47.3850   69.3870   15.8060 C.ar  345  TYR345     -0.0009
    140  CE1      -45.8810   70.7460   17.7130 C.ar  345  TYR345      0.0417
    141  CE2      -45.9890   69.2690   15.8110 C.ar  345  TYR345      0.0417
    142  CZ       -45.2470   69.9480   16.7700 C.ar  345  TYR345      0.1957
    143  OH       -43.8780   69.7960   16.8070 O.3   345  TYR345     -0.2866
    144  N        -51.2080   72.0120   14.3480 N.am  346  VAL346     -0.1980
    145  CA       -51.2240   72.2450   12.9100 C.3   346  VAL346      0.1595
    146  C        -51.6010   73.6580   12.4890 C.2   346  VAL346      0.2287
    147  O        -52.2840   74.3880   13.2120 O.2   346  VAL346     -0.2864
    148  CB       -52.1420   71.2250   12.2060 C.3   346  VAL346      0.0276
    149  CG1      -51.5700   69.8260   12.3880 C.3   346  VAL346      0.0022
    150  CG2      -53.5680   71.2960   12.7740 C.3   346  VAL346      0.0022
@<TRIPOS>BOND
     1   148   149    1
     2   148   150    1
     3   148   145    1
     4   146   145    1
     5   146   147    2
     6   145   144    1
     7   131   130    1
     8   130   129    1
     9   144   134   am
    10   135   134    2
    11   134   133    1
    12   129   128    1
    13   139   141   ar
    14   139   137   ar
    15   141   142   ar
    16   127   126    2
    17   125   128    1
    18   125   126    1
    19   125   124    1
    20   123   122    2
    21   133   136    1
    22   133   132    1
    23   137   136    1
    24   137   138   ar
    25   142   143    1
    26   142   140   ar
    27   122   124   am
    28   122   121    1
    29    22    21    1
    30   138   140   ar
    31   121   120    1
    32     9     7   ar
    33     9    11   ar
    34    12    11    1
    35   115   113    1
    36     7     6   ar
    37    21    23    1
    38    21    20    2
    39    11    10   ar
    40   120   118   am
    41   119   118    2
    42   113   112    1
    43   113   114    1
    44   111   110    2
    45    20    19    1
    46   118   117    1
    47    19    18    1
    48     6     5    1
    49     6     8   ar
    50   112   109    1
    51    10     8   ar
    52     5     2    1
    53   110   109    1
    54   110   116   am
    55     2     1    1
    56     2     3    1
    57    14    13    1
    58    14    17    1
    59    14    15    1
    60   109   108    1
    61    17    18    1
    62   117   116    1
    63     4     3    2
    64    24    15   am
    65    24    25    1
    66    31    33   ar
    67    31    29   ar
    68    27    26    2
    69    15    16    2
    70    33    32   ar
    71    28    29    1
    72    28    25    1
    73    29    30   ar
    74   108   102   am
    75    25    26    1
    76    32    30   ar
    77    26    34   am
    78   103   102    2
    79   102   101    1
    80    91    92    1
    81    34    35    1
    82    56    55    1
    83    94    93    2
    84    35    38    1
    85    35    36    1
    86    93    92    1
    87    93   100   am
    88    92    95    1
    89   101   100    1
    90   101   104    1
    91    55    57    1
    92    55    54    1
    93   106   104    1
    94   104   105    1
    95    39    36   am
    96    39    40    1
    97    98    97    2
    98    36    37    2
    99    95    96    1
   100    50    51    1
   101    54    51    1
   102    97    99   am
   103    97    96    1
   104    40    41    1
   105    40    43    1
   106    41    42    2
   107   105   107    1
   108    51    52    1
   109    47    45   ar
   110    47    49   ar
   111    45    44   ar
   112    49    48   ar
   113    44    43    1
   114    44    46   ar
   115    48    46   ar
   116    52    53    2
   117    79    81    1
   118    79    78    1
   119    64    63    1
   120    80    78    1
   121    78    75    1
   122    63    65    1
   123    63    62    1
   124    88    89    1
   125    88    87    1
   126    89    90    1
   127    62    59    1
   128    75    76    1
   129    75    74    1
   130    58    59    1
   131    77    76    2
   132    86    87    1
   133    86    83    1
   134    72    71    2
   135    59    60    1
   136    74    68   am
   137    84    85    2
   138    84    83    1
   139    61    60    2
   140    83    82    1
   141    71    73   am
   142    71    70    1
   143    68    69    2
   144    68    67    1
   145    70    67    1
   146    67    66    1
