@<TRIPOS>MOLECULE
tmp/1jqnA00.pdb
 99 91 0 0 0
SMALL
GASTEIGER

@<TRIPOS>ATOM
      1  N         28.4400   45.5830   -8.6490 N.3   584  ARG584     -0.1231
      2  CA        29.2410   46.6510   -9.2510 C.3   584  ARG584      0.1694
      3  C         30.5930   46.8180   -8.5710 C.2   584  ARG584      0.2592
      4  O         31.5790   47.1930   -9.2130 O.2   584  ARG584     -0.2718
      5  CB        28.4940   47.9880   -9.1770 C.3   584  ARG584      0.0321
      6  CG        27.1620   48.0140   -9.9020 C.3   584  ARG584      0.0489
      7  CD        26.5200   49.3970   -9.8620 C.3   584  ARG584      0.2205
      8  NE        27.4130   50.4320  -10.3710 N.pl3 584  ARG584     -0.0865
      9  CZ        27.0590   51.7040  -10.5270 C.cat 584  ARG584      0.5346
     10  NH1       25.8310   52.0920  -10.2180 N.pl3 584  ARG584      0.1354
     11  NH2       27.9320   52.5910  -10.9850 N.pl3 584  ARG584      0.1354
     12  N         30.6270   46.5500   -7.2670 N.am  585  GLY585     -0.1957
     13  CA        31.8540   46.6980   -6.5040 C.3   585  GLY585      0.1869
     14  C         32.0680   48.1460   -6.0800 C.2   585  GLY585      0.2309
     15  O         31.3640   49.0520   -6.5370 O.2   585  GLY585     -0.2863
     16  N         29.4540   52.1050   -5.4850 N.3   588  PRO588     -0.2116
     17  CA        28.0910   51.7750   -5.9160 C.3   588  PRO588      0.1372
     18  C         27.5310   50.5460   -5.1980 C.2   588  PRO588      0.2244
     19  O         26.3580   50.5180   -4.8390 O.2   588  PRO588     -0.2868
     20  CB        28.2510   51.5460   -7.4190 C.3   588  PRO588      0.0268
     21  CG        29.3520   52.4940   -7.7760 C.3   588  PRO588      0.0207
     22  CD        30.3440   52.2810   -6.6450 C.3   588  PRO588      0.0892
     23  N         35.4010   39.9370  -12.5980 N.3   613  MET613     -0.1245
     24  CA        35.5780   41.0360  -11.6620 C.3   613  MET613      0.1570
     25  C         36.4720   40.7040  -10.4780 C.2   613  MET613      0.2261
     26  O         36.7900   41.5840   -9.6850 O.2   613  MET613     -0.2867
     27  CB        34.2160   41.5040  -11.1460 C.3   613  MET613      0.0387
     28  CG        33.3880   42.2650  -12.1700 C.3   613  MET613      0.0595
     29  SD        34.0910   43.8870  -12.4820 S.3   613  MET613     -0.1393
     30  CE        33.6980   44.7210  -10.9050 C.3   613  MET613      0.0692
     31  N         25.9620   54.0890  -15.7620 N.3   760  MET760     -0.1245
     32  CA        27.2530   53.4250  -15.9450 C.3   760  MET760      0.1570
     33  C         27.2680   52.6120  -17.2340 C.2   760  MET760      0.2261
     34  O         28.2560   52.6110  -17.9590 O.2   760  MET760     -0.2867
     35  CB        27.5580   52.5310  -14.7280 C.3   760  MET760      0.0387
     36  CG        28.8690   51.7410  -14.7910 C.3   760  MET760      0.0595
     37  SD        28.6720   50.0180  -15.3350 S.3   760  MET760     -0.1393
     38  CE        27.2620   49.4710  -14.3270 C.3   760  MET760      0.0692
     39  N         29.7740   53.1980  -20.7200 N.3   764  LYS764     -0.1245
     40  CA        30.6610   52.2250  -21.3610 C.3   764  LYS764      0.1561
     41  C         30.2310   51.9160  -22.7900 C.2   764  LYS764      0.2260
     42  O         31.0330   51.4960  -23.6110 O.2   764  LYS764     -0.2867
     43  CB        30.6900   50.9300  -20.5540 C.3   764  LYS764      0.0271
     44  CG        31.2700   51.0690  -19.1780 C.3   764  LYS764      0.0035
     45  CD        31.1530   49.7540  -18.4290 C.3   764  LYS764      0.0206
     46  CE        31.8690   49.8220  -17.0950 C.3   764  LYS764      0.1093
     47  NZ        31.7670   48.5500  -16.3350 N.3   764  LYS764     -0.1314
     48  N         35.2830   56.9510  -10.9200 N.3   816  ILE816     -0.1245
     49  CA        34.8720   55.8540  -11.7850 C.3   816  ILE816      0.1561
     50  C         34.6450   56.3700  -13.1970 C.2   816  ILE816      0.2260
     51  O         34.9250   55.6740  -14.1760 O.2   816  ILE816     -0.2867
     52  CB        33.5830   55.1750  -11.2630 C.3   816  ILE816      0.0252
     53  CG1       33.8440   54.5440   -9.8890 C.3   816  ILE816      0.0019
     54  CG2       33.1400   54.0960  -12.2410 C.3   816  ILE816      0.0019
     55  CD1       32.5900   54.2830   -9.0860 C.3   816  ILE816      0.0001
     56  N         38.1290   56.6340  -14.7220 N.3   819  SER819     -0.1202
     57  CA        38.6270   55.2930  -14.9660 C.3   819  SER819      0.2020
     58  C         37.9880   54.7160  -16.2220 C.2   819  SER819      0.2618
     59  O         38.6610   54.0810  -17.0440 O.2   819  SER819     -0.2717
     60  CB        38.3120   54.3970  -13.7660 C.3   819  SER819      0.2103
     61  OG        38.6110   53.0420  -14.0510 O.3   819  SER819     -0.2182
     62  N         36.6880   54.9430  -16.3770 N.am  820  ILE820     -0.1979
     63  CA        36.0000   54.4220  -17.5380 C.3   820  ILE820      0.1595
     64  C         36.4770   55.0930  -18.8110 C.2   820  ILE820      0.2287
     65  O         36.7030   54.4340  -19.8230 O.2   820  ILE820     -0.2864
     66  CB        34.4920   54.5980  -17.4090 C.3   820  ILE820      0.0276
     67  CG1       33.9750   53.7050  -16.2780 C.3   820  ILE820      0.0022
     68  CG2       33.8160   54.2550  -18.7430 C.3   820  ILE820      0.0022
     69  CD1       32.4880   53.8170  -16.0400 C.3   820  ILE820      0.0001
     70  N         39.7740   53.6040  -19.8590 N.3   823  ARG823     -0.1245
     71  CA        39.6410   52.2740  -20.4130 C.3   823  ARG823      0.1563
     72  C         38.9780   52.2530  -21.7780 C.2   823  ARG823      0.2260
     73  O         39.3180   51.4230  -22.6140 O.2   823  ARG823     -0.2867
     74  CB        38.8840   51.3850  -19.4370 C.3   823  ARG823      0.0307
     75  CG        39.7670   50.8680  -18.3370 C.3   823  ARG823      0.0489
     76  CD        39.0000   49.9540  -17.4530 C.3   823  ARG823      0.2205
     77  NE        38.3620   50.6940  -16.3800 N.pl3 823  ARG823     -0.0865
     78  CZ        37.1020   50.5230  -16.0170 C.cat 823  ARG823      0.5346
     79  NH1       36.3410   49.6390  -16.6540 N.pl3 823  ARG823      0.1354
     80  NH2       36.6190   51.2140  -14.9980 N.pl3 823  ARG823      0.1354
     81  N         34.7980   45.3960  -17.9280 N.3   871  ARG871     -0.1231
     82  CA        34.4220   44.9260  -16.5890 C.3   871  ARG871      0.1694
     83  C         32.9250   44.6050  -16.4610 C.2   871  ARG871      0.2592
     84  O         32.3530   43.9560  -17.3360 O.2   871  ARG871     -0.2718
     85  CB        34.8360   45.9510  -15.5310 C.3   871  ARG871      0.0321
     86  CG        36.3270   46.2210  -15.5370 C.3   871  ARG871      0.0489
     87  CD        36.7620   47.1490  -14.4220 C.3   871  ARG871      0.2205
     88  NE        38.1530   47.5410  -14.6050 N.pl3 871  ARG871     -0.0865
     89  CZ        38.8440   48.2990  -13.7570 C.cat 871  ARG871      0.5346
     90  NH1       38.2770   48.7550  -12.6470 N.pl3 871  ARG871      0.1354
     91  NH2       40.1110   48.5970  -14.0250 N.pl3 871  ARG871      0.1354
     92  N         32.2890   45.0500  -15.3780 N.am  872  ASN872     -0.1974
     93  CA        30.8680   44.7700  -15.1820 C.3   872  ASN872      0.1688
     94  C         29.9590   45.5930  -16.1140 C.2   872  ASN872      0.2292
     95  O         29.8690   46.8280  -16.0110 O.2   872  ASN872     -0.2864
     96  CB        30.4870   44.9830  -13.7130 C.3   872  ASN872      0.1181
     97  CG        30.6200   46.4290  -13.2690 C.2   872  ASN872      0.2629
     98  OD1       31.6900   47.0390  -13.4010 O.2   872  ASN872     -0.2716
     99  ND2       29.5300   46.9870  -12.7260 N.am  872  ASN872     -0.0877
@<TRIPOS>BOND
     1    42    41    2
     2    41    40    1
     3    73    72    2
     4    72    71    1
     5    40    39    1
     6    40    43    1
     7    43    44    1
     8    71    70    1
     9    71    74    1
    10    65    64    2
    11    74    75    1
    12    44    45    1
    13    64    63    1
    14    68    66    1
    15    45    46    1
    16    75    76    1
    17    34    33    2
    18    81    82    1
    19    63    66    1
    20    63    62    1
    21    76    77    1
    22    66    67    1
    23    84    83    2
    24    33    32    1
    25    46    47    1
    26    59    58    2
    27    79    78    1
    28    82    83    1
    29    82    85    1
    30    83    92   am
    31    77    78    2
    32    62    58   am
    33    67    69    1
    34    58    57    1
    35    94    95    2
    36    94    93    1
    37    78    80    1
    38    32    31    1
    39    32    35    1
    40    86    85    1
    41    86    87    1
    42    92    93    1
    43    37    36    1
    44    37    38    1
    45    93    96    1
    46    57    56    1
    47    57    60    1
    48    36    35    1
    49    88    87    1
    50    88    89    2
    51    51    50    2
    52    61    60    1
    53    91    89    1
    54    89    90    1
    55    96    97    1
    56    98    97    2
    57    97    99   am
    58    50    49    1
    59    23    24    1
    60    29    28    1
    61    29    30    1
    62    54    52    1
    63    28    27    1
    64    49    52    1
    65    49    48    1
    66    24    27    1
    67    24    25    1
    68    52    53    1
    69    11     9    1
    70     9     8    2
    71     9    10    1
    72    25    26    2
    73     8     7    1
    74     6     7    1
    75     6     5    1
    76    53    55    1
    77     2     5    1
    78     2     1    1
    79     2     3    1
    80     4     3    2
    81     3    12   am
    82    21    20    1
    83    21    22    1
    84    20    17    1
    85    12    13    1
    86    22    16    1
    87    15    14    2
    88    13    14    1
    89    17    16    1
    90    17    18    1
    91    18    19    2
