@<TRIPOS>MOLECULE
tmp/1jqnA01.pdb
 152 143 0 0 0
SMALL
GASTEIGER

@<TRIPOS>ATOM
      1  N         33.2960   32.5150   -8.5760 N.3   133  THR133     -0.1218
      2  CA        32.7920   31.8030   -9.7530 C.3   133  THR133      0.1862
      3  C         33.8710   31.8710  -10.8330 C.2   133  THR133      0.2287
      4  O         34.7460   32.7350  -10.7870 O.2   133  THR133     -0.2866
      5  CB        31.4490   32.4010  -10.2710 C.3   133  THR133      0.1770
      6  OG1       31.6260   33.7640  -10.6770 O.3   133  THR133     -0.2211
      7  CG2       30.3960   32.3340   -9.1710 C.3   133  THR133      0.0375
      8  N         32.3160   27.9290   -6.7030 N.3   245  TRP245     -0.1241
      9  CA        31.3910   27.1590   -7.5350 C.3   245  TRP245      0.1605
     10  C         32.1680   26.2820   -8.5060 C.2   245  TRP245      0.2264
     11  O         31.5980   25.3810   -9.1230 O.2   245  TRP245     -0.2867
     12  CB        30.4680   28.0830   -8.3370 C.3   245  TRP245      0.0550
     13  CG        29.1850   28.4320   -7.6470 C.ar  245  TRP245      0.0003
     14  CD1       28.8980   28.2960   -6.3150 C.ar  245  TRP245      0.0946
     15  CD2       28.0170   28.9890   -8.2540 C.ar  245  TRP245      0.0152
     16  NE1       27.6190   28.7340   -6.0570 N.ar  245  TRP245     -0.2442
     17  CE2       27.0560   29.1660   -7.2300 C.ar  245  TRP245      0.0810
     18  CE3       27.6860   29.3610   -9.5650 C.ar  245  TRP245      0.0012
     19  CZ2       25.7860   29.6970   -7.4780 C.ar  245  TRP245      0.0191
     20  CZ3       26.4230   29.8920   -9.8150 C.ar  245  TRP245      0.0001
     21  CH2       25.4890   30.0550   -8.7710 C.ar  245  TRP245      0.0015
     22  N         25.2650   23.2630  -13.5450 N.3   251  ASP251     -0.1239
     23  CA        24.0890   23.7480  -14.2630 C.3   251  ASP251      0.1674
     24  C         24.4110   23.9510  -15.7420 C.2   251  ASP251      0.2266
     25  O         25.1840   24.8410  -16.0970 O.2   251  ASP251     -0.2867
     26  CB        23.6120   25.0690  -13.6530 C.3   251  ASP251      0.1410
     27  CG        22.3040   25.5420  -14.2440 C.2   251  ASP251      0.3668
     28  OD1       21.7970   24.8800  -15.1770 O.co2 251  ASP251     -0.2456
     29  OD2       21.7810   26.5750  -13.7800 O.co2 251  ASP251     -0.2456
     30  N         25.2600   22.9590   -7.5660 N.3   393  ARG393     -0.1245
     31  CA        24.1040   23.5690   -8.2040 C.3   393  ARG393      0.1563
     32  C         23.7220   22.7350   -9.4260 C.2   393  ARG393      0.2260
     33  O         24.5730   22.4020  -10.2570 O.2   393  ARG393     -0.2867
     34  CB        24.4340   25.0090   -8.5960 C.3   393  ARG393      0.0307
     35  CG        23.3070   25.7870   -9.2480 C.3   393  ARG393      0.0489
     36  CD        23.8710   26.4370  -10.4820 C.3   393  ARG393      0.2205
     37  NE        23.2920   27.7400  -10.7880 N.pl3 393  ARG393     -0.0865
     38  CZ        23.7280   28.5290  -11.7710 C.cat 393  ARG393      0.5346
     39  NH1       24.7460   28.1500  -12.5350 N.pl3 393  ARG393      0.1354
     40  NH2       23.1530   29.7060  -11.9940 N.pl3 393  ARG393      0.1354
     41  N         16.5470   28.5680   -6.5000 N.3   501  LEU501     -0.1245
     42  CA        17.0320   29.6870   -7.2880 C.3   501  LEU501      0.1561
     43  C         15.8870   30.1280   -8.2010 C.2   501  LEU501      0.2260
     44  O         15.4850   29.4000   -9.1090 O.2   501  LEU501     -0.2867
     45  CB        18.2450   29.2920   -8.1250 C.3   501  LEU501      0.0270
     46  CG        18.6270   30.2350   -9.2730 C.3   501  LEU501      0.0019
     47  CD1       18.8670   31.6370   -8.7450 C.3   501  LEU501      0.0001
     48  CD2       19.8590   29.7060   -9.9750 C.3   501  LEU501      0.0001
     49  N         14.9680   32.3740  -11.0070 N.3   503  GLU503     -0.1245
     50  CA        15.6480   33.1540  -12.0280 C.3   503  GLU503      0.1567
     51  C         14.7480   33.4940  -13.2090 C.2   503  GLU503      0.2260
     52  O         15.1810   33.5140  -14.3530 O.2   503  GLU503     -0.2867
     53  CB        16.8680   32.3690  -12.5000 C.3   503  GLU503      0.0388
     54  CG        16.5400   30.9680  -13.0120 C.3   503  GLU503      0.1160
     55  CD        17.7760   30.1290  -13.2370 C.2   503  GLU503      0.3649
     56  OE1       18.6040   30.5270  -14.0570 O.co2 503  GLU503     -0.2457
     57  OE2       17.9200   29.0720  -12.5980 O.co2 503  GLU503     -0.2457
     58  N         17.9070   32.0100   -3.3490 N.3   535  MET535     -0.1245
     59  CA        18.7710   32.6680   -4.3120 C.3   535  MET535      0.1570
     60  C         17.9430   33.4570   -5.3110 C.2   535  MET535      0.2261
     61  O         16.9190   32.9790   -5.7880 O.2   535  MET535     -0.2867
     62  CB        19.6350   31.6490   -5.0540 C.3   535  MET535      0.0387
     63  CG        20.9320   32.2450   -5.5590 C.3   535  MET535      0.0595
     64  SD        21.9630   31.2420   -6.6580 S.3   535  MET535     -0.1393
     65  CE        22.9160   32.5070   -7.3490 C.3   535  MET535      0.0692
     66  N         18.0150   35.2030   -8.9410 N.3   537  GLY537     -0.1210
     67  CA        18.7630   35.2150  -10.1790 C.3   537  GLY537      0.1956
     68  C         18.3920   36.4300  -10.9950 C.2   537  GLY537      0.2612
     69  O         17.5170   36.3590  -11.8590 O.2   537  GLY537     -0.2717
     70  N         19.0570   37.5480  -10.7190 N.am  538  TYR538     -0.1962
     71  CA        18.7760   38.7960  -11.4140 C.3   538  TYR538      0.1771
     72  C         19.1610   38.7650  -12.8920 C.2   538  TYR538      0.2620
     73  O         18.3890   39.1960  -13.7460 O.2   538  TYR538     -0.2715
     74  CB        19.4850   39.9600  -10.7110 C.3   538  TYR538      0.0574
     75  CG        19.5630   41.2240  -11.5480 C.ar  538  TYR538     -0.0198
     76  CD1       18.4510   42.0710  -11.7180 C.ar  538  TYR538     -0.0009
     77  CD2       20.7510   41.5510  -12.2080 C.ar  538  TYR538     -0.0009
     78  CE1       18.5370   43.2110  -12.5320 C.ar  538  TYR538      0.0417
     79  CE2       20.8470   42.6720  -13.0170 C.ar  538  TYR538      0.0417
     80  CZ        19.7470   43.5020  -13.1760 C.ar  538  TYR538      0.1957
     81  OH        19.9030   44.6280  -13.9600 O.3   538  TYR538     -0.2866
     82  N         20.3490   38.2610  -13.1960 N.am  539  SER539     -0.1936
     83  CA        20.7970   38.1980  -14.5810 C.3   539  SER539      0.2055
     84  C         19.8290   37.4510  -15.4970 C.2   539  SER539      0.2643
     85  O         19.4630   37.9550  -16.5580 O.2   539  SER539     -0.2714
     86  CB        22.1810   37.5520  -14.6670 C.3   539  SER539      0.2130
     87  OG        23.1990   38.5070  -14.4130 O.3   539  SER539     -0.2179
     88  N         19.4110   36.2560  -15.0930 N.am  540  ASP540     -0.1971
     89  CA        18.5000   35.4900  -15.9200 C.3   540  ASP540      0.1709
     90  C         17.1260   36.1380  -16.0030 C.2   540  ASP540      0.2293
     91  O         16.4930   36.1220  -17.0570 O.2   540  ASP540     -0.2864
     92  CB        18.4230   34.0480  -15.4180 C.3   540  ASP540      0.1436
     93  CG        19.0650   33.0770  -16.3990 C.2   540  ASP540      0.3671
     94  OD1       19.8460   32.2170  -15.9990 O.co2 540  ASP540     -0.2456
     95  OD2       18.7880   33.1760  -17.6110 O.co2 540  ASP540     -0.2456
     96  N         22.8670   36.5020   -6.9380 N.3   577  GLY577     -0.1210
     97  CA        23.5750   35.9880   -8.0960 C.3   577  GLY577      0.1956
     98  C         24.5560   37.0060   -8.6470 C.2   577  GLY577      0.2611
     99  O         24.8230   38.0250   -8.0160 O.2   577  GLY577     -0.2717
    100  N         25.0790   36.7560   -9.8420 N.am  578  ARG578     -0.1979
    101  CA        26.0630   37.6640  -10.4150 C.3   578  ARG578      0.1597
    102  C         25.4780   38.8560  -11.1310 C.2   578  ARG578      0.2287
    103  O         24.3690   38.7840  -11.6540 O.2   578  ARG578     -0.2864
    104  CB        26.9870   36.9060  -11.3620 C.3   578  ARG578      0.0334
    105  CG        26.2800   36.2870  -12.5450 C.3   578  ARG578      0.0492
    106  CD        27.1450   35.1910  -13.1880 C.3   578  ARG578      0.2205
    107  NE        28.4550   35.6610  -13.6440 N.pl3 578  ARG578     -0.0865
    108  CZ        28.6440   36.7080  -14.4490 C.cat 578  ARG578      0.5346
    109  NH1       29.8700   37.0530  -14.8180 N.pl3 578  ARG578      0.1354
    110  NH2       27.6060   37.4250  -14.8720 N.pl3 578  ARG578      0.1354
    111  N         27.6050   35.9290   -5.0930 N.3   608  THR608     -0.1218
    112  CA        28.5610   35.2520   -5.9390 C.3   608  THR608      0.1862
    113  C         29.2890   36.3220   -6.7540 C.2   608  THR608      0.2287
    114  O         28.6830   37.0800   -7.5050 O.2   608  THR608     -0.2866
    115  CB        27.8710   34.2260   -6.8650 C.3   608  THR608      0.1770
    116  OG1       26.4650   34.2130   -6.6000 O.3   608  THR608     -0.2211
    117  CG2       28.4140   32.8300   -6.6190 C.3   608  THR608      0.0375
    118  N         31.6250   25.3650  -19.3100 N.3   696  ARG696     -0.1245
    119  CA        30.2520   25.2320  -19.7860 C.3   696  ARG696      0.1563
    120  C         30.0200   26.0350  -21.0500 C.2   696  ARG696      0.2260
    121  O         30.6360   27.0830  -21.2500 O.2   696  ARG696     -0.2867
    122  CB        29.2540   25.6980  -18.7170 C.3   696  ARG696      0.0307
    123  CG        29.4170   27.1430  -18.2830 C.3   696  ARG696      0.0489
    124  CD        28.0840   27.8800  -18.2890 C.3   696  ARG696      0.2205
    125  NE        27.7630   28.4600  -16.9860 N.pl3 696  ARG696     -0.0865
    126  CZ        26.8720   29.4320  -16.7910 C.cat 696  ARG696      0.5346
    127  NH1       26.2080   29.9470  -17.8220 N.pl3 696  ARG696      0.1354
    128  NH2       26.6390   29.8820  -15.5630 N.pl3 696  ARG696      0.1354
    129  N         22.5290   31.2980  -22.5180 N.3   704  ARG704     -0.1231
    130  CA        22.7500   31.5720  -21.0930 C.3   704  ARG704      0.1694
    131  C         22.9260   33.0680  -20.8610 C.2   704  ARG704      0.2592
    132  O         23.2720   33.8070  -21.7840 O.2   704  ARG704     -0.2718
    133  CB        23.9960   30.8360  -20.5920 C.3   704  ARG704      0.0321
    134  CG        24.0150   29.3520  -20.9070 C.3   704  ARG704      0.0489
    135  CD        23.1300   28.5640  -19.9730 C.3   704  ARG704      0.2205
    136  NE        23.6880   28.4930  -18.6210 N.pl3 704  ARG704     -0.0865
    137  CZ        23.1530   27.7950  -17.6190 C.cat 704  ARG704      0.5346
    138  NH1       22.0370   27.0940  -17.8050 N.pl3 704  ARG704      0.1354
    139  NH2       23.7280   27.8010  -16.4250 N.pl3 704  ARG704      0.1354
    140  N         22.7100   33.5030  -19.6250 N.am  705  ALA705     -0.1966
    141  CA        22.8250   34.9190  -19.2790 C.3   705  ALA705      0.1728
    142  C         24.2000   35.5290  -19.5780 C.2   705  ALA705      0.2616
    143  O         24.2960   36.5580  -20.2480 O.2   705  ALA705     -0.2715
    144  CB        22.4590   35.1240  -17.7990 C.3   705  ALA705      0.0334
    145  N         25.2560   34.9000  -19.0760 N.am  706  ILE706     -0.1977
    146  CA        26.6050   35.4000  -19.3030 C.3   706  ILE706      0.1596
    147  C         26.8410   35.6770  -20.7980 C.2   706  ILE706      0.2287
    148  O         27.1680   36.8010  -21.1780 O.2   706  ILE706     -0.2864
    149  CB        27.6500   34.4090  -18.7250 C.3   706  ILE706      0.0276
    150  CG1       27.4870   34.3450  -17.1930 C.3   706  ILE706      0.0022
    151  CG2       29.0530   34.8290  -19.1170 C.3   706  ILE706      0.0022
    152  CD1       28.3620   33.3240  -16.4930 C.3   706  ILE706      0.0001
@<TRIPOS>BOND
     1   129   130    1
     2   132   131    2
     3   121   120    2
     4   148   147    2
     5   130   131    1
     6   130   133    1
     7   120   119    1
     8   134   133    1
     9   134   135    1
    10   131   140   am
    11   147   146    1
    12   143   142    2
    13   135   136    1
    14   119   118    1
    15   119   122    1
    16   140   141    1
    17   142   141    1
    18   142   145   am
    19   146   145    1
    20   146   149    1
    21   141   144    1
    22   151   149    1
    23   149   150    1
    24   122   123    1
    25   136   137    2
    26   124   123    1
    27   124   125    1
    28   127   126    1
    29   138   137    1
    30   137   139    1
    31    95    93   ar
    32   150   152    1
    33    91    90    2
    34   125   126    2
    35   126   128    1
    36    85    84    2
    37    93    94   ar
    38    93    92    1
    39    25    24    2
    40    90    89    1
    41    89    92    1
    42    89    88    1
    43    24    23    1
    44    84    88   am
    45    84    83    1
    46    28    27   ar
    47   110   108    1
    48   109   108    1
    49    86    83    1
    50    86    87    1
    51    83    82    1
    52   108   107    2
    53    52    51    2
    54    23    26    1
    55    23    22    1
    56    27    29   ar
    57    27    26    1
    58    56    55   ar
    59    81    80    1
    60    73    72    2
    61   107   106    1
    62    55    54    1
    63    55    57   ar
    64    51    50    1
    65    82    72   am
    66   106   105    1
    67    80    79   ar
    68    80    78   ar
    69    79    77   ar
    70    54    53    1
    71    72    71    1
    72   105   104    1
    73    39    38    1
    74    78    76   ar
    75    53    50    1
    76    77    75   ar
    77    50    49    1
    78    40    38    1
    79    69    68    2
    80    38    37    2
    81    76    75   ar
    82   103   102    2
    83    75    74    1
    84    71    70    1
    85    71    74    1
    86   104   101    1
    87   102   101    1
    88    68    70   am
    89    68    67    1
    90     3     4    2
    91     3     2    1
    92    37    36    1
    93     6     5    1
    94    36    35    1
    95   101   100    1
    96     5     2    1
    97     5     7    1
    98    33    32    2
    99    67    66    1
   100    48    46    1
   101   100    98   am
   102    20    18   ar
   103    20    21   ar
   104     2     1    1
   105    18    15   ar
   106    32    31    1
   107    46    47    1
   108    46    45    1
   109    35    34    1
   110    11    10    2
   111    44    43    2
   112    21    19   ar
   113    98    97    1
   114    98    99    2
   115    34    31    1
   116    10     9    1
   117    12    13    1
   118    12     9    1
   119    15    13   ar
   120    15    17   ar
   121    31    30    1
   122    43    42    1
   123    45    42    1
   124    97    96    1
   125    13    14   ar
   126     9     8    1
   127   114   113    2
   128    19    17   ar
   129    65    64    1
   130    42    41    1
   131    17    16   ar
   132   115   117    1
   133   115   116    1
   134   115   112    1
   135   113   112    1
   136    64    63    1
   137    14    16   ar
   138   112   111    1
   139    61    60    2
   140    63    62    1
   141    60    59    1
   142    62    59    1
   143    59    58    1
