@<TRIPOS>MOLECULE
tmp/1jqxB01.pdb
 86 81 0 0 0
SMALL
GASTEIGER

@<TRIPOS>ATOM
      1  N         15.6110  -24.2630   13.8720 N.3    43  LYS43      -0.1231
      2  CA        15.5330  -23.2560   12.8160 C.3    43  LYS43       0.1693
      3  C         14.0590  -23.1740   12.4260 C.2    43  LYS43       0.2592
      4  O         13.3880  -24.2020   12.3420 O.2    43  LYS43      -0.2718
      5  CB        16.3390  -23.7090   11.5900 C.3    43  LYS43       0.0285
      6  CG        16.0010  -22.9610   10.2890 C.3    43  LYS43       0.0035
      7  CD        16.5200  -21.5250   10.3040 C.3    43  LYS43       0.0206
      8  CE        16.0610  -20.7430    9.0710 C.3    43  LYS43       0.1093
      9  NZ        16.5250  -19.3180    9.1120 N.3    43  LYS43      -0.1314
     10  N         13.5490  -21.9710   12.1850 N.am   44  SER44      -0.1952
     11  CA        12.1500  -21.8280   11.7760 C.3    44  SER44       0.1924
     12  C         11.9140  -22.7000   10.5560 C.2    44  SER44       0.2314
     13  O         12.6400  -22.5980    9.5700 O.2    44  SER44      -0.2863
     14  CB        11.8330  -20.3820   11.4040 C.3    44  SER44       0.2116
     15  OG        11.8310  -19.5520   12.5470 O.3    44  SER44      -0.2180
     16  N         21.8440  -10.0400    7.4070 N.3    67  ASN67      -0.1240
     17  CA        21.5510  -11.3070    6.7480 C.3    67  ASN67       0.1653
     18  C         20.2170  -11.3260    6.0280 C.2    67  ASN67       0.2266
     19  O         19.2830  -10.6210    6.4000 O.2    67  ASN67      -0.2867
     20  CB        21.5480  -12.4530    7.7730 C.3    67  ASN67       0.1155
     21  CG        20.1530  -12.7430    8.3290 C.2    67  ASN67       0.2627
     22  OD1       19.3450  -13.4330    7.6950 O.2    67  ASN67      -0.2716
     23  ND2       19.8630  -12.2060    9.5110 N.am   67  ASN67      -0.0877
     24  N         18.9870  -14.6960    4.8570 N.3    69  MET69      -0.1230
     25  CA        19.0400  -16.1390    4.6090 C.3    69  MET69       0.1702
     26  C         17.8850  -16.6600    3.7520 C.2    69  MET69       0.2593
     27  O         18.0920  -17.5040    2.8800 O.2    69  MET69      -0.2718
     28  CB        19.0700  -16.9240    5.9270 C.3    69  MET69       0.0401
     29  CG        20.2030  -16.5610    6.8780 C.3    69  MET69       0.0596
     30  SD        21.8330  -16.3960    6.0930 S.3    69  MET69      -0.1393
     31  CE        22.1480  -18.0840    5.5150 C.3    69  MET69       0.0692
     32  N         16.6710  -16.1820    4.0160 N.am   70  GLY70      -0.1942
     33  CA        15.5190  -16.6210    3.2390 C.3    70  GLY70       0.2014
     34  C         14.8930  -17.9220    3.7150 C.2    70  GLY70       0.2638
     35  O         14.3550  -18.7010    2.9230 O.2    70  GLY70      -0.2714
     36  N         14.9630  -18.1540    5.0170 N.am   71  LEU71      -0.1977
     37  CA        14.4070  -19.3510    5.6330 C.3    71  LEU71       0.1596
     38  C         14.8760  -20.6970    5.0840 C.2    71  LEU71       0.2287
     39  O         14.0660  -21.5800    4.7870 O.2    71  LEU71      -0.2864
     40  CB        12.8770  -19.2940    5.6110 C.3    71  LEU71       0.0297
     41  CG        12.2380  -18.2470    6.5290 C.3    71  LEU71       0.0022
     42  CD1       10.7350  -18.2280    6.2850 C.3    71  LEU71       0.0001
     43  CD2       12.5390  -18.5600    7.9950 C.3    71  LEU71       0.0001
     44  N          6.8450  -17.8420   14.3960 N.3   127  ASN127     -0.1240
     45  CA         7.6120  -16.7030   13.8960 C.3   127  ASN127      0.1653
     46  C          6.7770  -15.7920   13.0000 C.2   127  ASN127      0.2266
     47  O          6.4930  -16.1250   11.8510 O.2   127  ASN127     -0.2867
     48  CB         8.8320  -17.2390   13.1370 C.3   127  ASN127      0.1155
     49  CG         9.7260  -16.1420   12.5950 C.2   127  ASN127      0.2627
     50  OD1        9.4260  -14.9510   12.7090 O.2   127  ASN127     -0.2716
     51  ND2       10.8390  -16.5460   11.9900 N.am  127  ASN127     -0.0877
     52  N          9.8070  -12.7930   10.1350 N.3   130  CYS130     -0.1221
     53  CA        10.9270  -12.9650    9.2160 C.3   130  CYS130      0.1794
     54  C         10.9510  -11.7830    8.2450 C.2   130  CYS130      0.2443
     55  O          9.9730  -11.5390    7.5390 O.2   130  CYS130     -0.2733
     56  CB        10.7870  -14.2640    8.4320 C.3   130  CYS130      0.0970
     57  SG        12.0950  -14.4640    7.2050 S.3   130  CYS130     -0.0800
     58  N         12.0690  -11.0350    8.1950 N.am  131  PRO131     -0.2718
     59  CA        12.1690   -9.8820    7.2970 C.3   131  PRO131      0.1535
     60  C         12.9250  -10.1570    5.9990 C.2   131  PRO131      0.2598
     61  O         13.2540   -9.2200    5.2670 O.2   131  PRO131     -0.2715
     62  CB        12.9100   -8.8690    8.1540 C.3   131  PRO131      0.0310
     63  CG        13.9670   -9.7500    8.8020 C.3   131  PRO131      0.0237
     64  CD        13.1930  -11.0420    9.1560 C.3   131  PRO131      0.0939
     65  N         13.1810  -11.4280    5.7010 N.am  132  ASN132     -0.1973
     66  CA        13.9600  -11.7640    4.5130 C.3   132  ASN132      0.1688
     67  C         13.3380  -12.5900    3.3890 C.2   132  ASN132      0.2292
     68  O         14.0520  -13.0320    2.4870 O.2   132  ASN132     -0.2864
     69  CB        15.2650  -12.4300    4.9470 C.3   132  ASN132      0.1181
     70  CG        16.0320  -11.5970    5.9540 C.2   132  ASN132      0.2629
     71  OD1       16.1490  -10.3800    5.8070 O.2   132  ASN132     -0.2716
     72  ND2       16.5670  -12.2500    6.9800 N.am  132  ASN132     -0.0877
     73  N         13.1170  -10.0380   16.7970 N.3   193  ASN193     -0.1225
     74  CA        13.7030  -10.6410   15.6070 C.3   193  ASN193      0.1785
     75  C         14.6210   -9.5060   15.1120 C.2   193  ASN193      0.2597
     76  O         14.6380   -8.4230   15.6990 O.2   193  ASN193     -0.2718
     77  CB        12.6220  -10.9370   14.5630 C.3   193  ASN193      0.1169
     78  CG        13.0300  -12.0380   13.6040 C.2   193  ASN193      0.2627
     79  OD1       14.1520  -12.0510   13.1050 O.2   193  ASN193     -0.2716
     80  ND2       12.1150  -12.9690   13.3390 N.am  193  ASN193     -0.0877
     81  N         15.3800   -9.7530   14.0510 N.am  194  SER194     -0.1952
     82  CA        16.3030   -8.7460   13.5240 C.3   194  SER194      0.1924
     83  C         15.6100   -7.4640   13.0660 C.2   194  SER194      0.2314
     84  O         14.4450   -7.4880   12.6720 O.2   194  SER194     -0.2863
     85  CB        17.1150   -9.3370   12.3670 C.3   194  SER194      0.2116
     86  OG        16.2680   -9.8410   11.3500 O.3   194  SER194     -0.2180
@<TRIPOS>BOND
     1    68    67    2
     2    27    26    2
     3    35    34    2
     4    33    34    1
     5    33    32    1
     6    67    66    1
     7    34    36   am
     8    26    32   am
     9    26    25    1
    10    66    69    1
    11    66    65    1
    12    25    24    1
    13    25    28    1
    14    39    38    2
    15    69    70    1
    16    36    37    1
    17    38    37    1
    18    61    60    2
    19    31    30    1
    20    40    37    1
    21    40    41    1
    22    65    60   am
    23    71    70    2
    24    28    29    1
    25    70    72   am
    26    60    59    1
    27    18    19    2
    28    18    17    1
    29    30    29    1
    30    42    41    1
    31    41    43    1
    32    17    16    1
    33    17    20    1
    34    57    56    1
    35    59    62    1
    36    59    58    1
    37    55    54    2
    38    22    21    2
    39    20    21    1
    40    62    63    1
    41    58    54   am
    42    58    64    1
    43    54    53    1
    44    21    23   am
    45    56    53    1
    46    63    64    1
    47     8     9    1
    48     8     7    1
    49    53    52    1
    50    13    12    2
    51     6     7    1
    52     6     5    1
    53    12    11    1
    54    86    85    1
    55    14    11    1
    56    14    15    1
    57     5     2    1
    58    11    10    1
    59    47    46    2
    60    51    49   am
    61    10     3   am
    62     4     3    2
    63    85    82    1
    64     3     2    1
    65    49    50    2
    66    49    48    1
    67    84    83    2
    68     2     1    1
    69    46    45    1
    70    83    82    1
    71    79    78    2
    72    48    45    1
    73    80    78   am
    74    82    81    1
    75    78    77    1
    76    45    44    1
    77    81    75   am
    78    77    74    1
    79    75    74    1
    80    75    76    2
    81    74    73    1
