@<TRIPOS>MOLECULE
tmp/1jqyN01.pdb
 99 97 0 0 0
SMALL
GASTEIGER

@<TRIPOS>ATOM
      1  N         31.8770   42.8960   58.1840 N.3    12  TYR12      -0.1227
      2  CA        31.2450   44.1720   58.3980 C.3    12  TYR12       0.1736
      3  C         31.9080   44.9490   59.5300 C.2    12  TYR12       0.2595
      4  O         32.3150   44.5030   60.5960 O.2    12  TYR12      -0.2718
      5  CB        29.7190   44.0600   58.7000 C.3    12  TYR12       0.0548
      6  CG        28.9820   43.3320   57.5770 C.ar   12  TYR12      -0.0200
      7  CD1       28.5050   44.0030   56.4680 C.ar   12  TYR12      -0.0009
      8  CD2       28.7950   41.9480   57.6590 C.ar   12  TYR12      -0.0009
      9  CE1       27.8780   43.2990   55.4690 C.ar   12  TYR12       0.0417
     10  CE2       28.1360   41.2600   56.6710 C.ar   12  TYR12       0.0417
     11  CZ        27.6710   41.9210   55.5720 C.ar   12  TYR12       0.1957
     12  OH        27.0310   41.2610   54.5440 O.3    12  TYR12      -0.2866
     13  N         31.9660   46.2490   59.2020 N.am   13  ARG13      -0.1980
     14  CA        32.5850   47.1550   60.1850 C.3    13  ARG13       0.1597
     15  C         31.6430   47.3740   61.3540 C.2    13  ARG13       0.2287
     16  O         30.4730   46.9710   61.3580 O.2    13  ARG13      -0.2864
     17  CB        33.0530   48.3990   59.4450 C.3    13  ARG13       0.0334
     18  CG        34.3420   48.2460   58.6610 C.3    13  ARG13       0.0492
     19  CD        34.5500   47.0410   57.7780 C.3    13  ARG13       0.2205
     20  NE        34.9660   45.8420   58.4720 N.pl3  13  ARG13      -0.0865
     21  CZ        35.8870   45.6100   59.3850 C.cat  13  ARG13       0.5346
     22  NH1       36.6800   46.5570   59.8590 N.pl3  13  ARG13       0.1354
     23  NH2       35.9850   44.3510   59.8260 N.pl3  13  ARG13       0.1354
     24  N         16.3200   46.8570   63.5100 N.3    51  GLU51      -0.1245
     25  CA        16.0260   48.2250   63.1960 C.3    51  GLU51       0.1567
     26  C         14.8900   48.4230   62.2000 C.2    51  GLU51       0.2260
     27  O         14.6510   47.7200   61.2310 O.2    51  GLU51      -0.2867
     28  CB        17.2180   49.0510   62.6960 C.3    51  GLU51       0.0388
     29  CG        18.2720   49.3350   63.7530 C.3    51  GLU51       0.1160
     30  CD        19.5180   49.8380   63.0080 C.2    51  GLU51       0.3649
     31  OE1       19.5490   51.0670   62.7740 O.co2  51  GLU51      -0.2457
     32  OE2       20.4050   49.0310   62.6740 O.co2  51  GLU51      -0.2457
     33  N         19.5110   53.2870   55.3420 N.3    56  GLN56      -0.1231
     34  CA        20.7920   52.6060   55.5150 C.3    56  GLN56       0.1698
     35  C         20.6720   51.1190   55.1760 C.2    56  GLN56       0.2592
     36  O         21.6170   50.3620   55.3070 O.2    56  GLN56      -0.2718
     37  CB        21.3590   52.7760   56.9260 C.3    56  GLN56       0.0381
     38  CG        20.8390   51.8830   58.0240 C.3    56  GLN56       0.0905
     39  CD        19.5020   52.1860   58.6450 C.2    56  GLN56       0.2608
     40  OE1       18.6420   52.9320   58.1950 O.2    56  GLN56      -0.2717
     41  NE2       19.2130   51.6280   59.8250 N.am   56  GLN56      -0.0878
     42  N         19.4750   50.7030   54.7800 N.am   57  HIS57      -0.1962
     43  CA        19.1700   49.3820   54.3170 C.3    57  HIS57       0.1787
     44  C         19.0610   49.3060   52.7890 C.2    57  HIS57       0.2620
     45  O         18.2680   50.0730   52.2730 O.2    57  HIS57      -0.2715
     46  CB        17.8500   48.8360   54.9190 C.3    57  HIS57       0.0785
     47  CG        18.1210   48.5590   56.3680 C.ar   57  HIS57       0.0821
     48  ND1       17.5000   49.1860   57.4130 N.ar   57  HIS57      -0.2267
     49  CD2       19.0300   47.7050   56.9140 C.ar   57  HIS57       0.1154
     50  CE1       17.9810   48.7100   58.5630 C.ar   57  HIS57       0.1986
     51  NE2       18.9090   47.8030   58.2810 N.ar   57  HIS57      -0.2212
     52  N         19.7990   48.3450   52.2250 N.am   58  ILE58      -0.1977
     53  CA        19.6520   48.0900   50.7810 C.3    58  ILE58       0.1596
     54  C         18.3810   47.2500   50.6010 C.2    58  ILE58       0.2287
     55  O         18.0050   46.5620   51.5800 O.2    58  ILE58      -0.2864
     56  CB        20.9340   47.5220   50.1900 C.3    58  ILE58       0.0276
     57  CG1       21.2870   46.1130   50.7100 C.3    58  ILE58       0.0022
     58  CG2       22.1350   48.4190   50.5480 C.3    58  ILE58       0.0022
     59  CD1       22.1250   45.3710   49.6810 C.3    58  ILE58       0.0001
     60  N         17.6980   43.7210   51.8700 N.3    61  GLN61      -0.1253
     61  CA        17.5440   43.6040   53.2950 C.3    61  GLN61       0.1468
     62  C         16.0790   43.6880   53.7320 C.3    61  GLN61       0.2054
     63  O         15.8600   43.2510   54.8730 O.3    61  GLN61      -0.2184
     64  CB        18.3520   44.6350   54.1070 C.2    61  GLN61      -0.0001
     65  CG        19.8700   44.3450   54.2230 C.2    61  GLN61       0.0581
     66  CD        20.6830   45.4420   54.8660 C.2    61  GLN61       0.2840
     67  OE1       20.7590   46.5940   54.4230 O.2    61  GLN61      -0.2667
     68  NE2       21.3530   45.2020   55.9940 N.am   61  GLN61      -0.0837
     69  N         25.5560   45.2200   65.1280 N.3    88  TRP88      -0.1241
     70  CA        26.1950   46.5230   64.8760 C.3    88  TRP88       0.1605
     71  C         26.3230   47.1960   66.2570 C.2    88  TRP88       0.2264
     72  O         25.3590   47.2110   67.0350 O.2    88  TRP88      -0.2867
     73  CB        25.5550   47.3250   63.7830 C.3    88  TRP88       0.0550
     74  CG        25.7170   46.8290   62.3630 C.ar   88  TRP88       0.0003
     75  CD1       26.7570   46.9900   61.5370 C.ar   88  TRP88       0.0946
     76  CD2       24.7380   46.1220   61.5930 C.ar   88  TRP88       0.0152
     77  NE1       26.5670   46.4240   60.3150 N.ar   88  TRP88      -0.2442
     78  CE2       25.3050   45.8680   60.3190 C.ar   88  TRP88       0.0810
     79  CE3       23.4610   45.6180   61.8640 C.ar   88  TRP88       0.0012
     80  CZ2       24.6320   45.1760   59.3260 C.ar   88  TRP88       0.0191
     81  CZ3       22.8160   44.9380   60.8540 C.ar   88  TRP88       0.0001
     82  CH2       23.3820   44.7090   59.5970 C.ar   88  TRP88       0.0015
     83  N         27.6890   50.4490   66.8350 N.3    90  ASN90      -0.1225
     84  CA        27.5680   51.9000   66.7780 C.3    90  ASN90       0.1785
     85  C         26.1130   52.3140   67.0330 C.2    90  ASN90       0.2597
     86  O         25.7800   53.4970   66.8720 O.2    90  ASN90      -0.2718
     87  CB        28.0240   52.4720   65.4290 C.3    90  ASN90       0.1169
     88  CG        27.3150   51.9310   64.2260 C.2    90  ASN90       0.2627
     89  OD1       26.3800   51.1490   64.3650 O.2    90  ASN90      -0.2716
     90  ND2       27.7000   52.2600   62.9930 N.am   90  ASN90      -0.0877
     91  N         25.1580   51.4050   67.2390 N.am   91  LYS91      -0.1980
     92  CA        23.7590   51.7760   67.4510 C.3    91  LYS91       0.1596
     93  C         23.2900   51.5490   68.8500 C.2    91  LYS91       0.2287
     94  O         23.8500   50.7150   69.5720 O.2    91  LYS91      -0.2864
     95  CB        22.8830   50.9240   66.5310 C.3    91  LYS91       0.0298
     96  CG        22.9920   51.3470   65.0840 C.3    91  LYS91       0.0038
     97  CD        22.2810   52.6820   64.9160 C.3    91  LYS91       0.0206
     98  CE        21.8030   52.8120   63.4790 C.3    91  LYS91       0.1093
     99  NZ        22.6910   52.2070   62.4780 N.3    91  LYS91      -0.1314
@<TRIPOS>BOND
     1    59    57    1
     2    56    58    1
     3    56    57    1
     4    56    53    1
     5    54    53    1
     6    54    55    2
     7    53    52    1
     8    60    61    1
     9    52    44   am
    10    45    44    2
    11    44    43    1
    12    61    62    1
    13    61    64    1
    14    62    63    1
    15    64    65    2
    16    65    66    1
    17    43    42    1
    18    43    46    1
    19    67    66    2
    20    12    11    1
    21    42    35   am
    22    66    68   am
    23    46    47    1
    24    35    36    2
    25    35    34    1
    26    33    34    1
    27     9    11   ar
    28     9     7   ar
    29    34    37    1
    30    11    10   ar
    31    47    49   ar
    32    47    48   ar
    33     7     6   ar
    34    10     8   ar
    35    49    51   ar
    36    37    38    1
    37    48    50   ar
    38     6     8   ar
    39     6     5    1
    40    19    20    1
    41    19    18    1
    42    38    39    1
    43     1     2    1
    44    40    39    2
    45    51    50   ar
    46     2     5    1
    47     2     3    1
    48    20    21    2
    49    39    41   am
    50    18    17    1
    51    13     3   am
    52    13    14    1
    53    80    82   ar
    54    80    78   ar
    55    21    23    1
    56    21    22    1
    57    17    14    1
    58     3     4    2
    59    82    81   ar
    60    14    15    1
    61    77    78   ar
    62    77    75   ar
    63    78    76   ar
    64    81    79   ar
    65    27    26    2
    66    15    16    2
    67    75    74   ar
    68    76    79   ar
    69    76    74   ar
    70    26    25    1
    71    74    73    1
    72    99    98    1
    73    32    30   ar
    74    28    25    1
    75    28    29    1
    76    31    30   ar
    77    90    88   am
    78    30    29    1
    79    25    24    1
    80    98    97    1
    81    73    70    1
    82    88    89    2
    83    88    87    1
    84    70    69    1
    85    70    71    1
    86    97    96    1
    87    96    95    1
    88    87    84    1
    89    71    72    2
    90    95    92    1
    91    84    83    1
    92    84    85    1
    93    86    85    2
    94    85    91   am
    95    91    92    1
    96    92    93    1
    97    93    94    2
