@<TRIPOS>MOLECULE
tmp/1jr0E00.pdb
 112 111 0 0 0
SMALL
GASTEIGER

@<TRIPOS>ATOM
      1  N          8.7830   12.3970   16.9400 N.3    12  TYR12      -0.1227
      2  CA        10.0760   13.0570   16.7750 C.3    12  TYR12       0.1736
      3  C         11.1490   12.3670   17.5710 C.2    12  TYR12       0.2595
      4  O         10.8620   11.8980   18.6590 O.2    12  TYR12      -0.2718
      5  CB         9.9400   14.5220   17.2530 C.3    12  TYR12       0.0548
      6  CG         8.9390   15.2440   16.3570 C.ar   12  TYR12      -0.0200
      7  CD1        7.5890   15.2440   16.6760 C.ar   12  TYR12      -0.0009
      8  CD2        9.3750   15.9060   15.2010 C.ar   12  TYR12      -0.0009
      9  CE1        6.6590   15.8920   15.8650 C.ar   12  TYR12       0.0417
     10  CE2        8.4690   16.5470   14.3890 C.ar   12  TYR12       0.0417
     11  CZ         7.1210   16.5410   14.7330 C.ar   12  TYR12       0.1957
     12  OH         6.2030   17.1630   13.9160 O.3    12  TYR12      -0.2866
     13  N         12.3660   12.3660   17.0360 N.am   13  HIS13      -0.1961
     14  CA        13.5120   11.9520   17.8510 C.3    13  HIS13       0.1787
     15  C         13.9460   13.0410   18.8220 C.2    13  HIS13       0.2620
     16  O         13.6360   14.2240   18.6790 O.2    13  HIS13      -0.2715
     17  CB        14.6840   11.5600   16.9450 C.3    13  HIS13       0.0785
     18  CG        14.3730   10.3160   16.1660 C.ar   13  HIS13       0.0821
     19  ND1       14.0350   10.3570   14.8280 N.ar   13  HIS13      -0.2267
     20  CD2       14.3460    9.0190   16.5190 C.ar   13  HIS13       0.1154
     21  CE1       13.8080    9.1370   14.3770 C.ar   13  HIS13       0.1986
     22  NE2       13.9890    8.3010   15.3930 N.ar   13  HIS13      -0.2212
     23  N         14.6920   12.6830   19.8470 N.am   14  ASN14      -0.1972
     24  CA        15.2830   13.5620   20.8330 C.3    14  ASN14       0.1688
     25  C         14.2260   14.2980   21.6430 C.2    14  ASN14       0.2292
     26  O         14.5010   15.3970   22.0840 O.2    14  ASN14      -0.2864
     27  CB        16.2350   14.6030   20.2010 C.3    14  ASN14       0.1181
     28  CG        17.4880   13.9920   19.6250 C.2    14  ASN14       0.2629
     29  OD1       18.2130   13.2720   20.3220 O.2    14  ASN14      -0.2716
     30  ND2       17.7360   14.2740   18.3390 N.am   14  ASN14      -0.0877
     31  N         13.5670   28.1320   21.3130 N.3    51  GLU51      -0.1245
     32  CA        14.8550   28.4070   20.6720 C.3    51  GLU51       0.1567
     33  C         14.7880   29.5930   19.7310 C.2    51  GLU51       0.2260
     34  O         13.7630   29.8930   19.1390 O.2    51  GLU51      -0.2867
     35  CB        15.2600   27.1960   19.8450 C.3    51  GLU51       0.0388
     36  CG        15.7110   26.0060   20.6640 C.3    51  GLU51       0.1160
     37  CD        16.2980   24.9440   19.7350 C.2    51  GLU51       0.3649
     38  OE1       15.5020   24.1600   19.1850 O.co2  51  GLU51      -0.2457
     39  OE2       17.5200   24.8670   19.5510 O.co2  51  GLU51      -0.2457
     40  N         18.6820   27.2900   11.4030 N.3    55  SER55      -0.1202
     41  CA        18.6460   26.4250   10.2240 C.3    55  SER55       0.2020
     42  C         18.0120   25.0730   10.5140 C.2    55  SER55       0.2619
     43  O         17.6610   24.3950    9.5370 O.2    55  SER55      -0.2717
     44  CB        20.0370   26.2270    9.6060 C.3    55  SER55       0.2103
     45  OG        20.9790   26.2560   10.6220 O.3    55  SER55      -0.2182
     46  N         17.8540   24.6730   11.7510 N.am   56  GLN56      -0.1965
     47  CA        17.1520   23.4200   12.0440 C.3    56  GLN56       0.1733
     48  C         15.6590   23.4910   11.8540 C.2    56  GLN56       0.2616
     49  O         15.0080   22.4430   11.8740 O.2    56  GLN56      -0.2715
     50  CB        17.4290   22.9970   13.4920 C.3    56  GLN56       0.0408
     51  CG        16.8440   23.8050   14.6160 C.3    56  GLN56       0.0908
     52  CD        17.6380   25.0020   15.0540 C.2    56  GLN56       0.2608
     53  OE1       18.3420   25.6270   14.2540 O.2    56  GLN56      -0.2717
     54  NE2       17.6330   25.3970   16.3280 N.am   56  GLN56      -0.0878
     55  N         15.1480   24.7030   11.7190 N.am   57  HIS57      -0.1959
     56  CA        13.7190   24.9620   11.5790 C.3    57  HIS57       0.1787
     57  C         13.3300   25.0820   10.1170 C.2    57  HIS57       0.2620
     58  O         14.0000   25.7550    9.3260 O.2    57  HIS57      -0.2715
     59  CB        13.2960   26.2480   12.3030 C.3    57  HIS57       0.0785
     60  CG        13.4840   26.1660   13.7850 C.ar   57  HIS57       0.0821
     61  ND1       14.3460   26.9070   14.5110 N.ar   57  HIS57      -0.2267
     62  CD2       12.9710   25.3760   14.7600 C.ar   57  HIS57       0.1154
     63  CE1       14.4090   26.7120   15.7830 C.ar   57  HIS57       0.1986
     64  NE2       13.5200   25.7330   15.9550 N.ar   57  HIS57      -0.2212
     65  N         12.2360   24.4040    9.7580 N.am   58  ILE58      -0.1977
     66  CA        11.7040   24.5550    8.4240 C.3    58  ILE58       0.1596
     67  C         10.7990   25.7690    8.4220 C.2    58  ILE58       0.2287
     68  O         10.3730   26.2690    9.4580 O.2    58  ILE58      -0.2864
     69  CB        10.9480   23.3140    7.9300 C.3    58  ILE58       0.0276
     70  CG1        9.7320   22.9560    8.7630 C.3    58  ILE58       0.0022
     71  CG2       11.8960   22.1140    7.8050 C.3    58  ILE58       0.0022
     72  CD1        8.9390   21.7730    8.2180 C.3    58  ILE58       0.0001
     73  N          7.6660   26.3790   10.5310 N.3    61  GLN61      -0.1245
     74  CA         7.8500   26.5110   11.9720 C.3    61  GLN61       0.1566
     75  C          8.0340   27.9520   12.4280 C.2    61  GLN61       0.2260
     76  O          7.8040   28.2260   13.5950 O.2    61  GLN61      -0.2867
     77  CB         9.0440   25.6840   12.4830 C.3    61  GLN61       0.0367
     78  CG         8.8670   24.1650   12.3190 C.3    61  GLN61       0.0905
     79  CD        10.0880   23.4300   12.8390 C.2    61  GLN61       0.2608
     80  OE1       11.0340   23.2040   12.0910 O.2    61  GLN61      -0.2717
     81  NE2       10.0920   23.0730   14.1110 N.am   61  GLN61      -0.0878
     82  N         12.5740   19.0290   23.0710 N.3    88  TRP88      -0.1241
     83  CA        13.7860   18.4100   22.5720 C.3    88  TRP88       0.1605
     84  C         14.8530   18.4620   23.6810 C.2    88  TRP88       0.2264
     85  O         15.1570   19.5520   24.1920 O.2    88  TRP88      -0.2867
     86  CB        14.2930   19.1200   21.3290 C.3    88  TRP88       0.0550
     87  CG        13.4630   18.8850   20.1010 C.ar   88  TRP88       0.0003
     88  CD1       13.4510   17.7590   19.3210 C.ar   88  TRP88       0.0946
     89  CD2       12.5230   19.7830   19.4980 C.ar   88  TRP88       0.0152
     90  NE1       12.5730   17.9060   18.2830 N.ar   88  TRP88      -0.2442
     91  CE2       11.9930   19.1450   18.3660 C.ar   88  TRP88       0.0810
     92  CE3       12.1010   21.0780   19.8070 C.ar   88  TRP88       0.0012
     93  CZ2       11.0470   19.7740   17.5570 C.ar   88  TRP88       0.0191
     94  CZ3       11.1670   21.7050   19.0150 C.ar   88  TRP88       0.0001
     95  CH2       10.6430   21.0330   17.8780 C.ar   88  TRP88       0.0015
     96  N         18.0060   17.4310   23.4850 N.3    90  ASN90      -0.1225
     97  CA        19.3930   17.5920   23.0160 C.3    90  ASN90       0.1785
     98  C         19.8450   19.0490   23.0520 C.2    90  ASN90       0.2597
     99  O         20.8640   19.3890   22.4460 O.2    90  ASN90      -0.2718
    100  CB        19.5480   17.0090   21.6200 C.3    90  ASN90       0.1169
    101  CG        18.7050   17.7090   20.5780 C.2    90  ASN90       0.2627
    102  OD1       17.6260   18.2540   20.8220 O.2    90  ASN90      -0.2716
    103  ND2       19.1230   17.7300   19.3160 N.am   90  ASN90      -0.0877
    104  N         19.1070   19.9180   23.6970 N.am   91  LYS91      -0.1980
    105  CA        19.4180   21.3240   23.8810 C.3    91  LYS91       0.1596
    106  C         19.3600   21.6680   25.3680 C.2    91  LYS91       0.2287
    107  O         18.6440   20.9380   26.0550 O.2    91  LYS91      -0.2864
    108  CB        18.4410   22.2260   23.1420 C.3    91  LYS91       0.0298
    109  CG        18.4400   22.0320   21.6250 C.3    91  LYS91       0.0038
    110  CD        19.7260   22.5280   20.9880 C.3    91  LYS91       0.0206
    111  CE        19.9080   22.1140   19.5380 C.3    91  LYS91       0.1093
    112  NZ        18.7200   22.4480   18.6880 N.3    91  LYS91      -0.1314
@<TRIPOS>BOND
     1    71    69    1
     2    69    66    1
     3    69    70    1
     4    72    70    1
     5    67    66    1
     6    67    68    2
     7    66    65    1
     8    58    57    2
     9    43    42    2
    10    44    41    1
    11    44    45    1
    12    65    57   am
    13    57    56    1
    14    41    42    1
    15    41    40    1
    16    42    46   am
    17    73    74    1
    18    56    55    1
    19    56    59    1
    20    55    48   am
    21    46    47    1
    22    48    49    2
    23    48    47    1
    24    74    75    1
    25    74    77    1
    26    47    50    1
    27    80    79    2
    28    59    60    1
    29    78    77    1
    30    78    79    1
    31    75    76    2
    32    79    81   am
    33    50    51    1
    34    60    61   ar
    35    60    62   ar
    36    12    11    1
    37    53    52    2
    38    21    19   ar
    39    21    22   ar
    40    10    11   ar
    41    10     8   ar
    42    61    63   ar
    43    51    52    1
    44    11     9   ar
    45    62    64   ar
    46    19    18   ar
    47    52    54   am
    48     8     6   ar
    49    22    20   ar
    50    63    64   ar
    51     9     7   ar
    52    18    20   ar
    53    18    17    1
    54     6     7   ar
    55     6     5    1
    56     2     1    1
    57     2     5    1
    58     2     3    1
    59    17    14    1
    60    13     3   am
    61    13    14    1
    62    93    95   ar
    63    93    91   ar
    64     3     4    2
    65    14    15    1
    66    95    94   ar
    67    90    91   ar
    68    90    88   ar
    69    30    28   am
    70    91    89   ar
    71    16    15    2
    72   112   111    1
    73    15    23   am
    74    94    92   ar
    75    34    33    2
    76    38    37   ar
    77   103   101   am
    78    88    87   ar
    79    89    92   ar
    80    89    87   ar
    81   111   110    1
    82    39    37   ar
    83    28    27    1
    84    28    29    2
    85    33    32    1
    86    37    36    1
    87    35    36    1
    88    35    32    1
    89    23    24    1
    90    87    86    1
    91    27    24    1
    92   101   102    2
    93   101   100    1
    94    32    31    1
    95    24    25    1
    96   110   109    1
    97    86    83    1
    98   100    97    1
    99   109   108    1
   100    25    26    2
   101    99    98    2
   102    83    82    1
   103    83    84    1
   104    97    98    1
   105    97    96    1
   106    98   104   am
   107   108   105    1
   108    84    85    2
   109   104   105    1
   110   105   106    1
   111   106   107    2
