@<TRIPOS>MOLECULE
tmp/1jr1A01.pdb
 109 99 0 0 0
SMALL
GASTEIGER

@<TRIPOS>ATOM
      1  N         73.4990   85.6890   81.7080 N.3   212  ASP212     -0.1225
      2  CA        72.4920   84.9100   82.4300 C.3   212  ASP212      0.1805
      3  C         71.0280   85.1770   82.0660 C.2   212  ASP212      0.2598
      4  O         70.4940   86.2530   82.3390 O.2   212  ASP212     -0.2718
      5  CB        72.7060   85.1440   83.9320 C.3   212  ASP212      0.1424
      6  CG        72.1500   84.0360   84.7890 C.2   212  ASP212      0.3668
      7  OD1       72.0070   82.9010   84.2910 O.co2 212  ASP212     -0.2456
      8  OD2       71.8820   84.2940   85.9850 O.co2 212  ASP212     -0.2456
      9  N         70.3670   84.1740   81.5010 N.am  213  SER213     -0.1938
     10  CA        68.9630   84.2870   81.1220 C.3   213  SER213      0.2055
     11  C         68.3440   82.9370   80.8020 C.2   213  SER213      0.2643
     12  O         69.0300   82.0210   80.3510 O.2   213  SER213     -0.2714
     13  CB        68.7840   85.2400   79.9340 C.3   213  SER213      0.2130
     14  OG        69.6040   84.8820   78.8280 O.3   213  SER213     -0.2179
     15  N         67.0540   82.8100   81.0920 N.am  214  SER214     -0.1949
     16  CA        66.3110   81.5890   80.8350 C.3   214  SER214      0.1924
     17  C         65.9210   81.5130   79.3590 C.2   214  SER214      0.2314
     18  O         65.5940   80.4390   78.8450 O.2   214  SER214     -0.2863
     19  CB        65.0580   81.5580   81.7020 C.3   214  SER214      0.2116
     20  OG        64.2080   82.6260   81.3480 O.3   214  SER214     -0.2180
     21  N         70.6840   81.2630   77.7910 N.3   241  ASN241     -0.1240
     22  CA        70.0890   79.9510   77.5160 C.3   241  ASN241      0.1653
     23  C         69.2120   79.7960   76.3010 C.2   241  ASN241      0.2266
     24  O         68.1940   80.4750   76.1610 O.2   241  ASN241     -0.2867
     25  CB        69.4340   79.3450   78.7500 C.3   241  ASN241      0.1155
     26  CG        70.4450   78.7000   79.6790 C.2   241  ASN241      0.2627
     27  OD1       70.2970   77.5530   80.0980 O.2   241  ASN241     -0.2716
     28  ND2       71.5030   79.4380   79.9890 N.am  241  ASN241     -0.0877
     29  N         75.2580   78.6180   75.8040 N.3   260  ARG260     -0.1245
     30  CA        74.8360   77.9070   77.0010 C.3   260  ARG260      0.1563
     31  C         73.4860   77.3290   76.6020 C.2   260  ARG260      0.2260
     32  O         72.5350   78.0710   76.3730 O.2   260  ARG260     -0.2867
     33  CB        74.6970   78.8830   78.1680 C.3   260  ARG260      0.0307
     34  CG        74.5500   78.2340   79.5350 C.3   260  ARG260      0.0489
     35  CD        74.6570   79.2880   80.6420 C.3   260  ARG260      0.2205
     36  NE        74.3090   78.7650   81.9650 N.pl3 260  ARG260     -0.0865
     37  CZ        73.7500   79.4880   82.9320 C.cat 260  ARG260      0.5346
     38  NH1       73.4830   80.7710   82.7400 N.pl3 260  ARG260      0.1354
     39  NH2       73.4110   78.9210   84.0780 N.pl3 260  ARG260      0.1354
     40  N         70.1960   74.9690   77.3270 N.3   262  GLY262     -0.1210
     41  CA        69.3920   74.3470   78.3620 C.3   262  GLY262      0.1956
     42  C         68.2110   75.2010   78.7910 C.2   262  GLY262      0.2612
     43  O         68.3670   76.3970   78.9970 O.2   262  GLY262     -0.2717
     44  N         67.0260   74.6130   78.9010 N.am  263  MET263     -0.1965
     45  CA        65.8680   75.3680   79.3410 C.3   263  MET263      0.1736
     46  C         64.8290   74.5610   80.1300 C.2   263  MET263      0.2617
     47  O         64.0510   73.7810   79.5630 O.2   263  MET263     -0.2715
     48  CB        65.2010   76.1240   78.1860 C.3   263  MET263      0.0427
     49  CG        64.1500   77.1180   78.6780 C.3   263  MET263      0.0599
     50  SD        63.2270   78.0250   77.4400 S.3   263  MET263     -0.1393
     51  CE        62.4950   79.3070   78.4880 C.3   263  MET263      0.0692
     52  N         64.8480   74.7510   81.4470 N.am  264  GLY264     -0.1955
     53  CA        63.8990   74.0930   82.3230 C.3   264  GLY264      0.1869
     54  C         64.1650   72.6510   82.6770 C.2   264  GLY264      0.2309
     55  O         63.2700   71.9570   83.1480 O.2   264  GLY264     -0.2863
     56  N         64.4250   73.4000   88.5790 N.3   269  CYS269     -0.1235
     57  CA        63.6410   74.2060   87.6490 C.3   269  CYS269      0.1677
     58  C         62.1480   73.9090   87.4980 C.2   269  CYS269      0.2270
     59  O         61.7370   72.7570   87.3420 O.2   269  CYS269     -0.2867
     60  CB        64.3100   74.2000   86.2770 C.3   269  CYS269      0.0956
     61  SG        64.0380   75.7750   85.5160 S.3   269  CYS269     -0.0801
     62  N         60.3300   76.1950   85.4200 N.3   271  THR271     -0.1218
     63  CA        59.9930   77.0200   84.2510 C.3   271  THR271      0.1862
     64  C         59.0600   76.2750   83.2810 C.2   271  THR271      0.2287
     65  O         58.1240   76.8610   82.7370 O.2   271  THR271     -0.2866
     66  CB        61.2870   77.4910   83.4670 C.3   271  THR271      0.1770
     67  OG1       61.9480   78.5370   84.1910 O.3   271  THR271     -0.2211
     68  CG2       60.9490   77.9960   82.0580 C.3   271  THR271      0.0375
     69  N         73.9430   72.5380   79.5050 N.3   302  ASP302     -0.1239
     70  CA        73.6170   73.0560   80.8160 C.3   302  ASP302      0.1674
     71  C         72.2570   72.6300   81.3710 C.2   302  ASP302      0.2266
     72  O         71.2070   73.0940   80.9150 O.2   302  ASP302     -0.2867
     73  CB        73.7370   74.5770   80.7500 C.3   302  ASP302      0.1410
     74  CG        73.2100   75.2550   81.9660 C.2   302  ASP302      0.3668
     75  OD1       73.3220   74.6770   83.0610 O.co2 302  ASP302     -0.2456
     76  OD2       72.6800   76.3720   81.8200 O.co2 302  ASP302     -0.2456
     77  N         68.0490   79.8450   90.8930 N.3   352  MET352     -0.1230
     78  CA        68.1970   81.2920   90.8470 C.3   352  MET352      0.1702
     79  C         66.8880   82.0250   90.5670 C.2   352  MET352      0.2592
     80  O         66.8220   83.2540   90.6480 O.2   352  MET352     -0.2718
     81  CB        69.2650   81.6810   89.8240 C.3   352  MET352      0.0401
     82  CG        70.6720   81.2500   90.2240 C.3   352  MET352      0.0596
     83  SD        71.1030   81.7340   91.9190 S.3   352  MET352     -0.1393
     84  CE        71.6950   83.3980   91.6460 C.3   352  MET352      0.0692
     85  N         65.8540   81.2670   90.2330 N.am  353  GLY353     -0.1957
     86  CA        64.5580   81.8510   89.9720 C.3   353  GLY353      0.1869
     87  C         63.6400   81.5920   91.1470 C.2   353  GLY353      0.2309
     88  O         62.4250   81.7260   91.0210 O.2   353  GLY353     -0.2863
     89  N         65.7700   85.2450   94.4460 N.3   358  MET358     -0.1245
     90  CA        65.3480   86.5210   93.8840 C.3   358  MET358      0.1570
     91  C         65.1630   87.5490   94.9910 C.2   358  MET358      0.2261
     92  O         65.3520   88.7410   94.6810 O.2   358  MET358     -0.2867
     93  CB        64.0390   86.3680   93.0960 C.3   358  MET358      0.0387
     94  CG        64.1240   85.4530   91.8790 C.3   358  MET358      0.0595
     95  SD        62.7520   85.6980   90.7330 S.3   358  MET358     -0.1393
     96  CE        61.3900   84.9990   91.6780 C.3   358  MET358      0.0692
     97  N         60.5240   80.5840   89.2120 N.3   363  GLN363     -0.1231
     98  CA        60.8410   79.6250   88.1630 C.3   363  GLN363      0.1698
     99  C         61.7870   78.5820   88.7000 C.2   363  GLN363      0.2592
    100  O         62.1000   77.6090   88.0170 O.2   363  GLN363     -0.2718
    101  CB        61.4630   80.3280   86.9670 C.3   363  GLN363      0.0381
    102  CG        60.4830   81.2230   86.2450 C.3   363  GLN363      0.0905
    103  CD        61.1260   81.9940   85.1260 C.2   363  GLN363      0.2608
    104  OE1       61.1990   83.2260   85.1640 O.2   363  GLN363     -0.2717
    105  NE2       61.6080   81.2770   84.1190 N.am  363  GLN363     -0.0878
    106  N         62.1920   78.7630   89.9490 N.am  364  GLY364     -0.1957
    107  CA        63.0920   77.8280   90.5840 C.3   364  GLY364      0.1869
    108  C         62.5340   77.4850   91.9450 C.2   364  GLY364      0.2309
    109  O         61.6350   78.1680   92.4360 O.2   364  GLY364     -0.2863
@<TRIPOS>BOND
     1    29    30    1
     2    24    23    2
     3    23    22    1
     4    32    31    2
     5    31    30    1
     6    30    33    1
     7    40    41    1
     8    50    51    1
     9    50    49    1
    10    22    21    1
    11    22    25    1
    12    33    34    1
    13    48    49    1
    14    48    45    1
    15    41    42    1
    16    25    26    1
    17    42    44   am
    18    42    43    2
    19    14    13    1
    20    18    17    2
    21    44    45    1
    22    45    46    1
    23    17    16    1
    24    69    70    1
    25    34    35    1
    26    47    46    2
    27    26    28   am
    28    26    27    2
    29    13    10    1
    30    46    52   am
    31    12    11    2
    32    35    36    1
    33    73    70    1
    34    73    74    1
    35    11    15   am
    36    11    10    1
    37    70    71    1
    38    16    15    1
    39    16    19    1
    40    72    71    2
    41    10     9    1
    42    20    19    1
    43    52    53    1
    44     9     3   am
    45     1     2    1
    46    76    74   ar
    47    36    37    2
    48    74    75   ar
    49    68    66    1
    50     3     4    2
    51     3     2    1
    52    53    54    1
    53     2     5    1
    54    54    55    2
    55    65    64    2
    56    38    37    1
    57    37    39    1
    58    64    63    1
    59    66    67    1
    60    66    63    1
    61     5     6    1
    62   105   103   am
    63    63    62    1
    64     7     6   ar
    65     6     8   ar
    66   103   104    2
    67   103   102    1
    68    61    60    1
    69   102   101    1
    70    60    57    1
    71   101    98    1
    72    59    58    2
    73    58    57    1
    74    57    56    1
    75   100    99    2
    76    98    99    1
    77    98    97    1
    78    99   106   am
    79    81    82    1
    80    81    78    1
    81   106   107    1
    82    86    85    1
    83    86    87    1
    84    82    83    1
    85    85    79   am
    86    79    80    2
    87    79    78    1
    88   107   108    1
    89    95    96    1
    90    95    94    1
    91    78    77    1
    92    88    87    2
    93    84    83    1
    94    94    93    1
    95   108   109    2
    96    93    90    1
    97    90    89    1
    98    90    91    1
    99    92    91    2
