@<TRIPOS>MOLECULE
tmp/1jr1B00.pdb
 173 161 0 0 0
SMALL
GASTEIGER

@<TRIPOS>ATOM
      1  N         85.4320   61.6880   28.6510 N.3    58  SER58      -0.1217
      2  CA        85.5350   60.2640   28.9250 C.3    58  SER58       0.1889
      3  C         86.5690   59.5570   28.0810 C.2    58  SER58       0.2288
      4  O         86.6170   59.7430   26.8650 O.2    58  SER58      -0.2866
      5  CB        84.1740   59.5970   28.7080 C.3    58  SER58       0.2089
      6  OG        84.2240   58.1920   28.9310 O.3    58  SER58      -0.2183
      7  N         87.3840   57.2090   25.9480 N.3    60  MET60      -0.1245
      8  CA        86.7700   56.2540   25.0350 C.3    60  MET60       0.1570
      9  C         87.3310   56.5010   23.6410 C.2    60  MET60       0.2261
     10  O         87.5750   57.6500   23.2610 O.2    60  MET60      -0.2867
     11  CB        85.2540   56.4230   25.0530 C.3    60  MET60       0.0387
     12  CG        84.6210   56.0590   26.3790 C.3    60  MET60       0.0595
     13  SD        82.8790   56.4730   26.4510 S.3    60  MET60      -0.1393
     14  CE        82.2100   55.0850   25.5470 C.3    60  MET60       0.0692
     15  N         84.6030   48.5170   35.0330 N.3   146  SER146     -0.1217
     16  CA        83.1660   48.6150   35.2390 C.3   146  SER146      0.1889
     17  C         82.7830   48.3150   36.6840 C.2   146  SER146      0.2288
     18  O         81.6690   48.6040   37.1070 O.2   146  SER146     -0.2866
     19  CB        82.4330   47.6460   34.3340 C.3   146  SER146      0.2089
     20  OG        82.5670   46.3320   34.8210 O.3   146  SER146     -0.2183
     21  N         85.5210   52.2010   39.1050 N.3   173  ASN173     -0.1240
     22  CA        84.2430   52.8530   38.8780 C.3   173  ASN173      0.1653
     23  C         83.4050   52.2560   39.9750 C.2   173  ASN173      0.2266
     24  O         83.2370   51.0310   40.0360 O.2   173  ASN173     -0.2867
     25  CB        83.6650   52.5380   37.5020 C.3   173  ASN173      0.1155
     26  CG        83.6150   53.7640   36.6000 C.2   173  ASN173      0.2627
     27  OD1       84.6230   54.1600   36.0190 O.2   173  ASN173     -0.2716
     28  ND2       82.4410   54.3730   36.4830 N.am  173  ASN173     -0.0877
     29  N         85.8870   57.5810   40.4210 N.3   192  ARG192     -0.1245
     30  CA        85.0710   57.6540   39.2160 C.3   192  ARG192      0.1563
     31  C         83.7880   56.8770   39.5650 C.2   192  ARG192      0.2260
     32  O         83.8280   55.6710   39.8060 O.2   192  ARG192     -0.2867
     33  CB        85.8200   57.0320   38.0430 C.3   192  ARG192      0.0307
     34  CG        85.1470   57.2390   36.7130 C.3   192  ARG192      0.0489
     35  CD        86.0890   56.8620   35.5960 C.3   192  ARG192      0.2205
     36  NE        85.4370   56.8590   34.2950 N.pl3 192  ARG192     -0.0865
     37  CZ        85.7390   56.0130   33.3120 C.cat 192  ARG192      0.5346
     38  NH1       86.6880   55.1030   33.4800 N.pl3 192  ARG192      0.1354
     39  NH2       85.0890   56.0650   32.1600 N.pl3 192  ARG192      0.1354
     40  N         76.5920   51.4010   34.8160 N.3   196  GLY196     -0.1225
     41  CA        75.4490   51.1290   33.9680 C.3   196  GLY196      0.1811
     42  C         74.6290   52.2960   33.4480 C.2   196  GLY196      0.2280
     43  O         73.7810   52.1110   32.5760 O.2   196  GLY196     -0.2866
     44  N         75.6840   54.7780   31.6640 N.3   198  GLY198     -0.1210
     45  CA        76.2030   55.2930   30.4100 C.3   198  GLY198      0.1956
     46  C         75.2400   55.0650   29.2680 C.2   198  GLY198      0.2613
     47  O         74.7100   53.9660   29.1320 O.2   198  GLY198     -0.2717
     48  N         75.0650   56.0750   28.4180 N.am  199  SER199     -0.1938
     49  CA        74.1530   56.0100   27.2750 C.3   199  SER199      0.2055
     50  C         74.2940   54.7570   26.4170 C.2   199  SER199      0.2643
     51  O         73.3070   54.2480   25.8800 O.2   199  SER199     -0.2714
     52  CB        74.3090   57.2640   26.4110 C.3   199  SER199      0.2130
     53  OG        75.6610   57.4860   26.0730 O.3   199  SER199     -0.2179
     54  N         75.5160   54.2540   26.3120 N.am  200  ILE200     -0.1963
     55  CA        75.8060   53.0520   25.5190 C.3   200  ILE200      0.1727
     56  C         76.0120   51.7800   26.3700 C.2   200  ILE200      0.2616
     57  O         76.4480   50.7420   25.8630 O.2   200  ILE200     -0.2715
     58  CB        77.0680   53.2570   24.6110 C.3   200  ILE200      0.0290
     59  CG1       78.3500   53.4100   25.4590 C.3   200  ILE200      0.0022
     60  CG2       76.8520   54.4030   23.6370 C.3   200  ILE200      0.0023
     61  CD1       78.3720   54.5060   26.5300 C.3   200  ILE200      0.0001
     62  N         75.6640   51.8570   27.6510 N.am  201  CYS201     -0.1968
     63  CA        75.8440   50.7410   28.5720 C.3   201  CYS201      0.1712
     64  C         74.6560   49.8000   28.6000 C.2   201  CYS201      0.2296
     65  O         73.5050   50.2340   28.4750 O.2   201  CYS201     -0.2864
     66  CB        76.0810   51.2610   29.9920 C.3   201  CYS201      0.0983
     67  SG        77.7840   51.7720   30.2900 S.3   201  CYS201     -0.0798
     68  N         75.2530   46.9700   30.8140 N.3   203  THR203     -0.1218
     69  CA        75.7160   46.1950   31.9600 C.3   203  THR203      0.1862
     70  C         74.5290   45.8590   32.8810 C.2   203  THR203      0.2287
     71  O         74.3080   44.6970   33.2220 O.2   203  THR203     -0.2866
     72  CB        76.7910   46.9950   32.7540 C.3   203  THR203      0.1770
     73  OG1       77.9780   47.1240   31.9660 O.3   203  THR203     -0.2211
     74  CG2       77.1370   46.3210   34.0680 C.3   203  THR203      0.0375
     75  N         80.3090   60.0830   36.6560 N.3   234  ASP234     -0.1225
     76  CA        80.4840   59.5020   35.3270 C.3   234  ASP234      0.1805
     77  C         79.3540   58.6380   34.7390 C.2   234  ASP234      0.2598
     78  O         79.1720   57.4790   35.1230 O.2   234  ASP234     -0.2718
     79  CB        81.8040   58.7150   35.3450 C.3   234  ASP234      0.1424
     80  CG        82.0680   57.9730   34.0650 C.2   234  ASP234      0.3668
     81  OD1       81.7860   58.5240   32.9900 O.co2 234  ASP234     -0.2456
     82  OD2       82.5710   56.8380   34.1390 O.co2 234  ASP234     -0.2456
     83  N         78.6750   59.1790   33.7310 N.am  235  GLY235     -0.1942
     84  CA        77.6010   58.4530   33.0810 C.3   235  GLY235      0.2014
     85  C         76.2110   59.0130   33.3250 C.2   235  GLY235      0.2639
     86  O         75.8860   59.4170   34.4390 O.2   235  GLY235     -0.2714
     87  N         75.3980   59.0470   32.2720 N.am  236  GLY236     -0.1939
     88  CA        74.0370   59.5400   32.3830 C.3   236  GLY236      0.2014
     89  C         73.8200   61.0320   32.2030 C.2   236  GLY236      0.2638
     90  O         72.8270   61.5780   32.6780 O.2   236  GLY236     -0.2714
     91  N         74.7420   61.7110   31.5360 N.am  237  ILE237     -0.1977
     92  CA        74.6000   63.1390   31.3050 C.3   237  ILE237      0.1596
     93  C         74.1380   63.3100   29.8620 C.2   237  ILE237      0.2287
     94  O         74.5610   62.5650   28.9690 O.2   237  ILE237     -0.2864
     95  CB        75.9480   63.8970   31.4860 C.3   237  ILE237      0.0276
     96  CG1       76.5460   63.6310   32.8730 C.3   237  ILE237      0.0022
     97  CG2       75.7570   65.3970   31.2550 C.3   237  ILE237      0.0022
     98  CD1       75.7340   64.1750   34.0220 C.3   237  ILE237      0.0001
     99  N         82.0440   63.6060   34.1040 N.3   255  MET255     -0.1230
    100  CA        82.6450   62.9970   32.9150 C.3   255  MET255      0.1702
    101  C         81.5780   62.7190   31.8680 C.2   255  MET255      0.2592
    102  O         80.5190   62.1790   32.1820 O.2   255  MET255     -0.2718
    103  CB        83.3450   61.6880   33.2840 C.3   255  MET255      0.0401
    104  CG        84.0810   61.0510   32.1360 C.3   255  MET255      0.0596
    105  SD        84.9230   59.5710   32.6550 S.3   255  MET255     -0.1393
    106  CE        86.4560   60.2510   33.3170 C.3   255  MET255      0.0692
    107  N         81.8750   63.0370   30.6150 N.am  256  MET256     -0.1965
    108  CA        80.9100   62.8370   29.5410 C.3   256  MET256      0.1736
    109  C         81.4410   62.0230   28.3760 C.2   256  MET256      0.2617
    110  O         82.6170   62.0920   28.0440 O.2   256  MET256     -0.2715
    111  CB        80.4310   64.1900   29.0270 C.3   256  MET256      0.0427
    112  CG        79.8100   65.0510   30.0870 C.3   256  MET256      0.0599
    113  SD        79.6670   66.7330   29.5470 S.3   256  MET256     -0.1393
    114  CE        81.3120   67.3560   29.9740 C.3   256  MET256      0.0692
    115  N         80.5610   61.2120   27.8060 N.am  257  GLY257     -0.1940
    116  CA        80.9010   60.3980   26.6590 C.3   257  GLY257      0.2014
    117  C         80.0520   60.9310   25.5230 C.2   257  GLY257      0.2640
    118  O         80.5260   61.7150   24.6980 O.2   257  GLY257     -0.2714
    119  N         78.7610   60.6240   25.5660 N.am  258  SER258     -0.1935
    120  CA        77.8150   61.0650   24.5450 C.3   258  SER258      0.2055
    121  C         77.8030   62.5780   24.2840 C.2   258  SER258      0.2642
    122  O         77.9560   63.0080   23.1420 O.2   258  SER258     -0.2714
    123  CB        76.3990   60.5890   24.8980 C.3   258  SER258      0.2130
    124  OG        75.4830   60.9050   23.8590 O.3   258  SER258     -0.2179
    125  N         77.6460   63.3790   25.3360 N.am  259  LEU259     -0.1977
    126  CA        77.5990   64.8350   25.2040 C.3   259  LEU259      0.1596
    127  C         78.7620   65.4500   24.4380 C.2   259  LEU259      0.2287
    128  O         78.6620   66.5880   23.9890 O.2   259  LEU259     -0.2864
    129  CB        77.5160   65.5140   26.5740 C.3   259  LEU259      0.0297
    130  CG        76.1640   66.0670   27.0330 C.3   259  LEU259      0.0022
    131  CD1       76.3730   67.0620   28.1670 C.3   259  LEU259      0.0001
    132  CD2       75.4600   66.7580   25.8890 C.3   259  LEU259      0.0001
    133  N         80.0450   56.5040   17.9560 N.3   281  TYR281     -0.1241
    134  CA        80.1960   56.5380   19.3980 C.3   281  TYR281      0.1605
    135  C         79.7940   55.1560   19.8900 C.2   281  TYR281      0.2264
    136  O         78.6660   54.7170   19.6580 O.2   281  TYR281     -0.2867
    137  CB        79.3080   57.6060   20.0360 C.3   281  TYR281      0.0534
    138  CG        79.4680   57.6380   21.5360 C.ar  281  TYR281     -0.0201
    139  CD1       80.7350   57.6840   22.1130 C.ar  281  TYR281     -0.0009
    140  CD2       78.3630   57.5750   22.3800 C.ar  281  TYR281     -0.0009
    141  CE1       80.9000   57.6540   23.4840 C.ar  281  TYR281      0.0417
    142  CE2       78.5150   57.5470   23.7670 C.ar  281  TYR281      0.0417
    143  CZ        79.7920   57.5880   24.3130 C.ar  281  TYR281      0.1957
    144  OH        79.9750   57.5620   25.6830 O.3   281  TYR281     -0.2866
    145  N         80.3160   51.9660   23.1830 N.3   283  GLY283     -0.1210
    146  CA        80.7650   51.6180   24.5120 C.3   283  GLY283      0.1956
    147  C         82.0490   50.8410   24.3730 C.2   283  GLY283      0.2612
    148  O         82.2370   50.1260   23.3840 O.2   283  GLY283     -0.2717
    149  N         82.9440   50.9880   25.3420 N.am  284  MET284     -0.1965
    150  CA        84.2210   50.2820   25.3090 C.3   284  MET284      0.1736
    151  C         84.0400   48.7810   25.5040 C.2   284  MET284      0.2617
    152  O         84.8960   47.9810   25.1120 O.2   284  MET284     -0.2715
    153  CB        85.1800   50.8570   26.3560 C.3   284  MET284      0.0427
    154  CG        85.6710   52.2650   26.0410 C.3   284  MET284      0.0599
    155  SD        86.5550   52.4170   24.4660 S.3   284  MET284     -0.1393
    156  CE        85.2140   52.7110   23.3910 C.3   284  MET284      0.0692
    157  N         82.9070   48.4050   26.0860 N.am  285  GLY285     -0.1955
    158  CA        82.6260   47.0060   26.3130 C.3   285  GLY285      0.1869
    159  C         81.8020   46.4280   25.1900 C.2   285  GLY285      0.2309
    160  O         81.1460   45.4120   25.3780 O.2   285  GLY285     -0.2863
    161  N         79.0920   44.5170   27.0310 N.3   295  GLN295     -0.1231
    162  CA        78.4970   45.3690   28.0490 C.3   295  GLN295      0.1698
    163  C         78.0860   46.7330   27.5010 C.2   295  GLN295      0.2592
    164  O         77.5480   47.5650   28.2300 O.2   295  GLN295     -0.2718
    165  CB        79.4530   45.5250   29.2250 C.3   295  GLN295      0.0381
    166  CG        79.7650   44.2070   29.9020 C.3   295  GLN295      0.0905
    167  CD        80.3820   44.3950   31.2580 C.2   295  GLN295      0.2608
    168  OE1       79.8400   45.1090   32.1000 O.2   295  GLN295     -0.2717
    169  NE2       81.5150   43.7500   31.4890 N.am  295  GLN295     -0.0878
    170  N         78.2730   46.9290   26.2000 N.am  296  GLY296     -0.1957
    171  CA        77.9050   48.1840   25.5760 C.3   296  GLY296      0.1869
    172  C         77.4630   47.9820   24.1380 C.2   296  GLY296      0.2309
    173  O         77.6560   46.9020   23.5640 O.2   296  GLY296     -0.2863
@<TRIPOS>BOND
     1   133   134    1
     2   134   135    1
     3   134   137    1
     4   136   135    2
     5   137   138    1
     6   138   139   ar
     7   138   140   ar
     8   139   141   ar
     9   140   142   ar
    10   122   121    2
    11   145   146    1
    12    10     9    2
    13   148   147    2
    14   156   155    1
    15   141   143   ar
    16   173   172    2
    17    60    58    1
    18     9     8    1
    19   142   143   ar
    20   124   123    1
    21   128   127    2
    22   172   171    1
    23   121   120    1
    24   121   125   am
    25   143   144    1
    26   147   146    1
    27   147   149   am
    28   127   126    1
    29   155   154    1
    30   120   123    1
    31   120   119    1
    32    58    59    1
    33    58    55    1
    34   118   117    2
    35     8    11    1
    36     8     7    1
    37    11    12    1
    38   152   151    2
    39   159   160    2
    40   159   158    1
    41   126   125    1
    42   126   129    1
    43   150   149    1
    44   150   151    1
    45   150   153    1
    46    59    61    1
    47   151   157   am
    48    55    54    1
    49    55    56    1
    50   117   119   am
    51   117   116    1
    52    14    13    1
    53   171   170    1
    54    57    56    2
    55    51    50    2
    56   132   130    1
    57   154   153    1
    58    53    52    1
    59   157   158    1
    60   170   163   am
    61    54    50   am
    62    56    62   am
    63    12    13    1
    64    52    49    1
    65    50    49    1
    66   129   130    1
    67   116   115    1
    68     4     3    2
    69   161   162    1
    70   130   131    1
    71    49    48    1
    72   163   162    1
    73   163   164    2
    74    62    63    1
    75   115   109   am
    76   110   109    2
    77   162   165    1
    78     3     2    1
    79   109   108    1
    80    48    46   am
    81    65    64    2
    82    63    64    1
    83    63    66    1
    84     1     2    1
    85     5     2    1
    86     5     6    1
    87    94    93    2
    88   111   108    1
    89   111   112    1
    90    47    46    2
    91   165   166    1
    92    46    45    1
    93   108   107    1
    94   113   114    1
    95   113   112    1
    96    93    92    1
    97   166   167    1
    98    66    67    1
    99    45    44    1
   100   107   101   am
   101    68    69    1
   102    97    95    1
   103   167   169   am
   104   167   168    2
   105    92    95    1
   106    92    91    1
   107    95    96    1
   108    91    89   am
   109   101   102    2
   110   101   100    1
   111    69    72    1
   112    69    70    1
   113    73    72    1
   114   104   105    1
   115   104   103    1
   116    39    37    1
   117    89    88    1
   118    89    90    2
   119    87    88    1
   120    87    85   am
   121    43    42    2
   122   105   106    1
   123    72    74    1
   124    96    98    1
   125    70    71    2
   126   100   103    1
   127   100    99    1
   128    81    80   ar
   129    84    85    1
   130    84    83    1
   131    37    38    1
   132    37    36    2
   133    85    86    2
   134    42    41    1
   135    83    77   am
   136    41    40    1
   137    80    82   ar
   138    80    79    1
   139    36    35    1
   140    19    20    1
   141    19    16    1
   142    77    78    2
   143    77    76    1
   144    15    16    1
   145    16    17    1
   146    76    79    1
   147    76    75    1
   148    35    34    1
   149    27    26    2
   150    28    26   am
   151    26    25    1
   152    17    18    2
   153    34    33    1
   154    25    22    1
   155    33    30    1
   156    22    21    1
   157    22    23    1
   158    30    31    1
   159    30    29    1
   160    31    32    2
   161    23    24    2
