@<TRIPOS>MOLECULE
tmp/1jr1B01.pdb
 112 101 0 0 0
SMALL
GASTEIGER

@<TRIPOS>ATOM
      1  N         90.6560   52.1580   34.4350 N.3   144  ASP144     -0.1225
      2  CA        89.4080   51.8910   33.7190 C.3   144  ASP144      0.1805
      3  C         88.7680   50.5240   34.0010 C.2   144  ASP144      0.2598
      4  O         89.2740   49.4920   33.5500 O.2   144  ASP144     -0.2718
      5  CB        89.6740   52.0440   32.2240 C.3   144  ASP144      0.1424
      6  CG        88.4170   52.1540   31.4220 C.2   144  ASP144      0.3668
      7  OD1       87.4980   52.8590   31.8770 O.co2 144  ASP144     -0.2456
      8  OD2       88.3520   51.5530   30.3280 O.co2 144  ASP144     -0.2456
      9  N         87.6130   50.5310   34.6660 N.am  145  SER145     -0.1938
     10  CA        86.9060   49.3020   35.0250 C.3   145  SER145      0.2055
     11  C         85.4180   49.5420   35.2740 C.2   145  SER145      0.2643
     12  O         85.0210   50.6320   35.6800 O.2   145  SER145     -0.2714
     13  CB        87.5380   48.7020   36.2820 C.3   145  SER145      0.2130
     14  OG        86.6990   47.7200   36.8630 O.3   145  SER145     -0.2179
     15  N         84.6030   48.5170   35.0330 N.am  146  SER146     -0.1949
     16  CA        83.1660   48.6150   35.2390 C.3   146  SER146      0.1924
     17  C         82.7830   48.3150   36.6840 C.2   146  SER146      0.2314
     18  O         81.6690   48.6040   37.1070 O.2   146  SER146     -0.2863
     19  CB        82.4330   47.6460   34.3340 C.3   146  SER146      0.2116
     20  OG        82.5670   46.3320   34.8210 O.3   146  SER146     -0.2180
     21  N         85.5210   52.2010   39.1050 N.3   173  ASN173     -0.1240
     22  CA        84.2430   52.8530   38.8780 C.3   173  ASN173      0.1653
     23  C         83.4050   52.2560   39.9750 C.2   173  ASN173      0.2266
     24  O         83.2370   51.0310   40.0360 O.2   173  ASN173     -0.2867
     25  CB        83.6650   52.5380   37.5020 C.3   173  ASN173      0.1155
     26  CG        83.6150   53.7640   36.6000 C.2   173  ASN173      0.2627
     27  OD1       84.6230   54.1600   36.0190 O.2   173  ASN173     -0.2716
     28  ND2       82.4410   54.3730   36.4830 N.am  173  ASN173     -0.0877
     29  N         85.8870   57.5810   40.4210 N.3   192  ARG192     -0.1245
     30  CA        85.0710   57.6540   39.2160 C.3   192  ARG192      0.1563
     31  C         83.7880   56.8770   39.5650 C.2   192  ARG192      0.2260
     32  O         83.8280   55.6710   39.8060 O.2   192  ARG192     -0.2867
     33  CB        85.8200   57.0320   38.0430 C.3   192  ARG192      0.0307
     34  CG        85.1470   57.2390   36.7130 C.3   192  ARG192      0.0489
     35  CD        86.0890   56.8620   35.5960 C.3   192  ARG192      0.2205
     36  NE        85.4370   56.8590   34.2950 N.pl3 192  ARG192     -0.0865
     37  CZ        85.7390   56.0130   33.3120 C.cat 192  ARG192      0.5346
     38  NH1       86.6880   55.1030   33.4800 N.pl3 192  ARG192      0.1354
     39  NH2       85.0890   56.0650   32.1600 N.pl3 192  ARG192      0.1354
     40  N         79.8640   55.5140   38.9030 N.3   194  GLY194     -0.1210
     41  CA        78.8500   55.1700   37.9270 C.3   194  GLY194      0.1956
     42  C         78.9570   53.7380   37.4470 C.2   194  GLY194      0.2612
     43  O         80.0610   53.2500   37.2130 O.2   194  GLY194     -0.2717
     44  N         77.8280   53.0320   37.4090 N.am  195  MET195     -0.1965
     45  CA        77.7930   51.6680   36.9020 C.3   195  MET195      0.1736
     46  C         76.4960   51.3870   36.1400 C.2   195  MET195      0.2617
     47  O         75.4330   51.2290   36.7320 O.2   195  MET195     -0.2715
     48  CB        77.9980   50.6350   37.9990 C.3   195  MET195      0.0427
     49  CG        78.1940   49.2360   37.4320 C.3   195  MET195      0.0599
     50  SD        78.3760   47.9700   38.6820 S.3   195  MET195     -0.1393
     51  CE        79.6690   48.7070   39.6730 C.3   195  MET195      0.0692
     52  N         76.5920   51.4010   34.8160 N.am  196  GLY196     -0.1955
     53  CA        75.4490   51.1290   33.9680 C.3   196  GLY196      0.1869
     54  C         74.6290   52.2960   33.4480 C.2   196  GLY196      0.2309
     55  O         73.7810   52.1110   32.5760 O.2   196  GLY196     -0.2863
     56  N         75.6640   51.8570   27.6510 N.3   201  CYS201     -0.1235
     57  CA        75.8440   50.7410   28.5720 C.3   201  CYS201      0.1677
     58  C         74.6560   49.8000   28.6000 C.2   201  CYS201      0.2270
     59  O         73.5050   50.2340   28.4750 O.2   201  CYS201     -0.2867
     60  CB        76.0810   51.2610   29.9920 C.3   201  CYS201      0.0956
     61  SG        77.7840   51.7720   30.2900 S.3   201  CYS201     -0.0801
     62  N         75.2530   46.9700   30.8140 N.3   203  THR203     -0.1218
     63  CA        75.7160   46.1950   31.9600 C.3   203  THR203      0.1862
     64  C         74.5290   45.8590   32.8810 C.2   203  THR203      0.2287
     65  O         74.3080   44.6970   33.2220 O.2   203  THR203     -0.2866
     66  CB        76.7910   46.9950   32.7540 C.3   203  THR203      0.1770
     67  OG1       77.9780   47.1240   31.9660 O.3   203  THR203     -0.2211
     68  CG2       77.1370   46.3210   34.0680 C.3   203  THR203      0.0375
     69  N         80.3090   60.0830   36.6560 N.3   234  ASP234     -0.1239
     70  CA        80.4840   59.5020   35.3270 C.3   234  ASP234      0.1674
     71  C         79.3540   58.6380   34.7390 C.2   234  ASP234      0.2266
     72  O         79.1720   57.4790   35.1230 O.2   234  ASP234     -0.2867
     73  CB        81.8040   58.7150   35.3450 C.3   234  ASP234      0.1410
     74  CG        82.0680   57.9730   34.0650 C.2   234  ASP234      0.3668
     75  OD1       81.7860   58.5240   32.9900 O.co2 234  ASP234     -0.2456
     76  OD2       82.5710   56.8380   34.1390 O.co2 234  ASP234     -0.2456
     77  N         82.9440   50.9880   25.3420 N.3   284  MET284     -0.1230
     78  CA        84.2210   50.2820   25.3090 C.3   284  MET284      0.1702
     79  C         84.0400   48.7810   25.5040 C.2   284  MET284      0.2592
     80  O         84.8960   47.9810   25.1120 O.2   284  MET284     -0.2718
     81  CB        85.1800   50.8570   26.3560 C.3   284  MET284      0.0401
     82  CG        85.6710   52.2650   26.0410 C.3   284  MET284      0.0596
     83  SD        86.5550   52.4170   24.4660 S.3   284  MET284     -0.1393
     84  CE        85.2140   52.7110   23.3910 C.3   284  MET284      0.0692
     85  N         82.9070   48.4050   26.0860 N.am  285  GLY285     -0.1957
     86  CA        82.6260   47.0060   26.3130 C.3   285  GLY285      0.1869
     87  C         81.8020   46.4280   25.1900 C.2   285  GLY285      0.2309
     88  O         81.1460   45.4120   25.3780 O.2   285  GLY285     -0.2863
     89  N         85.9190   45.8780   21.6920 N.3   290  MET290     -0.1245
     90  CA        86.7830   44.8820   22.3240 C.3   290  MET290      0.1570
     91  C         87.6150   44.0490   21.3400 C.2   290  MET290      0.2261
     92  O         87.0790   43.6740   20.2730 O.2   290  MET290     -0.2867
     93  CB        85.9600   43.9560   23.2280 C.3   290  MET290      0.0387
     94  CG        85.2220   44.6630   24.3590 C.3   290  MET290      0.0595
     95  SD        84.5570   43.5060   25.5830 S.3   290  MET290     -0.1393
     96  CE        83.2110   42.7360   24.6590 C.3   290  MET290      0.0692
     97  N         81.1090   38.6180   26.5080 N.3   293  VAL293     -0.1245
     98  CA        79.8410   39.1710   26.9690 C.3   293  VAL293      0.1561
     99  C         79.9030   40.6940   26.8300 C.2   293  VAL293      0.2260
    100  O         80.5620   41.3720   27.6230 O.2   293  VAL293     -0.2867
    101  CB        79.5610   38.7760   28.4410 C.3   293  VAL293      0.0252
    102  CG1       78.2270   39.3310   28.8930 C.3   293  VAL293      0.0019
    103  CG2       79.5730   37.2610   28.5890 C.3   293  VAL293      0.0019
    104  N         79.0920   44.5170   27.0310 N.3   295  GLN295     -0.1245
    105  CA        78.4970   45.3690   28.0490 C.3   295  GLN295      0.1566
    106  C         78.0860   46.7330   27.5010 C.2   295  GLN295      0.2260
    107  O         77.5480   47.5650   28.2300 O.2   295  GLN295     -0.2867
    108  CB        79.4530   45.5250   29.2250 C.3   295  GLN295      0.0367
    109  CG        79.7650   44.2070   29.9020 C.3   295  GLN295      0.0905
    110  CD        80.3820   44.3950   31.2580 C.2   295  GLN295      0.2608
    111  OE1       79.8400   45.1090   32.1000 O.2   295  GLN295     -0.2717
    112  NE2       81.5150   43.7500   31.4890 N.am  295  GLN295     -0.0878
@<TRIPOS>BOND
     1    92    91    2
     2    91    90    1
     3    89    90    1
     4    90    93    1
     5    93    94    1
     6    84    83    1
     7    94    95    1
     8    83    82    1
     9    96    95    1
    10    80    79    2
    11    87    88    2
    12    87    86    1
    13    78    77    1
    14    78    79    1
    15    78    81    1
    16    79    85   am
    17    82    81    1
    18    85    86    1
    19    97    98    1
    20    99    98    1
    21    99   100    2
    22    98   101    1
    23   104   105    1
    24   106   105    1
    25   106   107    2
    26    56    57    1
    27   105   108    1
    28   101   103    1
    29   101   102    1
    30    59    58    2
    31    57    58    1
    32    57    60    1
    33   108   109    1
    34   109   110    1
    35    60    61    1
    36     8     6   ar
    37    62    63    1
    38   110   112   am
    39   110   111    2
    40     6     7   ar
    41     6     5    1
    42    63    66    1
    43    63    64    1
    44    67    66    1
    45    39    37    1
    46     5     2    1
    47    55    54    2
    48    66    68    1
    49    64    65    2
    50    75    74   ar
    51    37    38    1
    52    37    36    2
    53    54    53    1
    54     4     3    2
    55     2     3    1
    56     2     1    1
    57    53    52    1
    58     3     9   am
    59    74    76   ar
    60    74    73    1
    61    36    35    1
    62    19    20    1
    63    19    16    1
    64     9    10    1
    65    71    72    2
    66    71    70    1
    67    52    46   am
    68    10    11    1
    69    10    13    1
    70    15    16    1
    71    15    11   am
    72    16    17    1
    73    11    12    2
    74    70    73    1
    75    70    69    1
    76    35    34    1
    77    27    26    2
    78    46    47    2
    79    46    45    1
    80    13    14    1
    81    28    26   am
    82    26    25    1
    83    17    18    2
    84    34    33    1
    85    45    44    1
    86    45    48    1
    87    43    42    2
    88    44    42   am
    89    49    48    1
    90    49    50    1
    91    42    41    1
    92    25    22    1
    93    41    40    1
    94    33    30    1
    95    50    51    1
    96    22    21    1
    97    22    23    1
    98    30    31    1
    99    30    29    1
   100    31    32    2
   101    23    24    2
