@<TRIPOS>MOLECULE
tmp/1jr1A00.pdb
 172 160 0 0 0
SMALL
GASTEIGER

@<TRIPOS>ATOM
      1  N         78.0410   75.7180   87.6100 N.3    52  SER52      -0.1217
      2  CA        77.0220   76.7060   87.2930 C.3    52  SER52       0.1889
      3  C         77.0800   77.9930   88.1060 C.2    52  SER52       0.2288
      4  O         77.4450   77.9950   89.2830 O.2    52  SER52      -0.2866
      5  CB        75.6390   76.0670   87.4430 C.3    52  SER52       0.2089
      6  OG        74.6020   77.0040   87.1940 O.3    52  SER52      -0.2183
      7  N         75.5530   79.9810   90.2950 N.3    54  MET54      -0.1245
      8  CA        74.4230   79.9750   91.2150 C.3    54  MET54       0.1570
      9  C         74.8680   80.2700   92.6330 C.2    54  MET54       0.2261
     10  O         75.9920   79.9650   93.0040 O.2    54  MET54      -0.2867
     11  CB        73.7240   78.6110   91.1800 C.3    54  MET54       0.0387
     12  CG        73.1160   78.2550   89.8310 C.3    54  MET54       0.0595
     13  SD        72.4900   76.5780   89.7290 S.3    54  MET54      -0.1393
     14  CE        70.8860   76.7960   90.4470 C.3    54  MET54       0.0692
     15  N         70.6840   81.2630   77.7910 N.3   241  ASN241     -0.1240
     16  CA        70.0890   79.9510   77.5160 C.3   241  ASN241      0.1653
     17  C         69.2120   79.7960   76.3010 C.2   241  ASN241      0.2266
     18  O         68.1940   80.4750   76.1610 O.2   241  ASN241     -0.2867
     19  CB        69.4340   79.3450   78.7500 C.3   241  ASN241      0.1155
     20  CG        70.4450   78.7000   79.6790 C.2   241  ASN241      0.2627
     21  OD1       70.2970   77.5530   80.0980 O.2   241  ASN241     -0.2716
     22  ND2       71.5030   79.4380   79.9890 N.am  241  ASN241     -0.0877
     23  N         75.2580   78.6180   75.8040 N.3   260  ARG260     -0.1245
     24  CA        74.8360   77.9070   77.0010 C.3   260  ARG260      0.1563
     25  C         73.4860   77.3290   76.6020 C.2   260  ARG260      0.2260
     26  O         72.5350   78.0710   76.3730 O.2   260  ARG260     -0.2867
     27  CB        74.6970   78.8830   78.1680 C.3   260  ARG260      0.0307
     28  CG        74.5500   78.2340   79.5350 C.3   260  ARG260      0.0489
     29  CD        74.6570   79.2880   80.6420 C.3   260  ARG260      0.2205
     30  NE        74.3090   78.7650   81.9650 N.pl3 260  ARG260     -0.0865
     31  CZ        73.7500   79.4880   82.9320 C.cat 260  ARG260      0.5346
     32  NH1       73.4830   80.7710   82.7400 N.pl3 260  ARG260      0.1354
     33  NH2       73.4110   78.9210   84.0780 N.pl3 260  ARG260      0.1354
     34  N         70.1960   74.9690   77.3270 N.3   262  GLY262     -0.1225
     35  CA        69.3920   74.3470   78.3620 C.3   262  GLY262      0.1811
     36  C         68.2110   75.2010   78.7910 C.2   262  GLY262      0.2280
     37  O         68.3670   76.3970   78.9970 O.2   262  GLY262     -0.2866
     38  N         64.8480   74.7510   81.4470 N.3   264  GLY264     -0.1225
     39  CA        63.8990   74.0930   82.3230 C.3   264  GLY264      0.1811
     40  C         64.1650   72.6510   82.6770 C.2   264  GLY264      0.2280
     41  O         63.2700   71.9570   83.1480 O.2   264  GLY264     -0.2866
     42  N         67.0070   71.8590   84.6190 N.3   266  GLY266     -0.1210
     43  CA        67.8460   71.8670   85.8020 C.3   266  GLY266      0.1956
     44  C         67.0660   71.3470   86.9880 C.2   266  GLY266      0.2613
     45  O         65.9130   71.7350   87.1680 O.2   266  GLY266     -0.2717
     46  N         67.7060   70.5280   87.8220 N.am  267  SER267     -0.1938
     47  CA        67.0770   69.9250   89.0000 C.3   267  SER267      0.2055
     48  C         66.0770   70.8120   89.7470 C.2   267  SER267      0.2643
     49  O         64.9780   70.3620   90.0650 O.2   267  SER267     -0.2714
     50  CB        68.1500   69.4060   89.9640 C.3   267  SER267      0.2130
     51  OG        69.0280   70.4400   90.3560 O.3   267  SER267     -0.2179
     52  N         66.4440   72.0700   89.9920 N.am  268  ILE268     -0.1963
     53  CA        65.5840   73.0240   90.7000 C.3   268  ILE268      0.1727
     54  C         64.7030   73.8690   89.7860 C.2   268  ILE268      0.2616
     55  O         64.2250   74.9230   90.2010 O.2   268  ILE268     -0.2715
     56  CB        66.4100   74.0170   91.5890 C.3   268  ILE268      0.0290
     57  CG1       67.7950   74.2890   90.9940 C.3   268  ILE268      0.0022
     58  CG2       66.5090   73.5000   93.0010 C.3   268  ILE268      0.0023
     59  CD1       67.7760   74.9210   89.6390 C.3   268  ILE268      0.0001
     60  N         64.4250   73.4000   88.5790 N.am  269  CYS269     -0.1968
     61  CA        63.6410   74.2060   87.6490 C.3   269  CYS269      0.1712
     62  C         62.1480   73.9090   87.4980 C.2   269  CYS269      0.2296
     63  O         61.7370   72.7570   87.3420 O.2   269  CYS269     -0.2864
     64  CB        64.3100   74.2000   86.2770 C.3   269  CYS269      0.0983
     65  SG        64.0380   75.7750   85.5160 S.3   269  CYS269     -0.0798
     66  N         60.3300   76.1950   85.4200 N.3   271  THR271     -0.1218
     67  CA        59.9930   77.0200   84.2510 C.3   271  THR271      0.1862
     68  C         59.0600   76.2750   83.2810 C.2   271  THR271      0.2287
     69  O         58.1240   76.8610   82.7370 O.2   271  THR271     -0.2866
     70  CB        61.2870   77.4910   83.4670 C.3   271  THR271      0.1770
     71  OG1       61.9480   78.5370   84.1910 O.3   271  THR271     -0.2211
     72  CG2       60.9490   77.9960   82.0580 C.3   271  THR271      0.0375
     73  N         73.9430   72.5380   79.5050 N.3   302  ASP302     -0.1225
     74  CA        73.6170   73.0560   80.8160 C.3   302  ASP302      0.1805
     75  C         72.2570   72.6300   81.3710 C.2   302  ASP302      0.2598
     76  O         71.2070   73.0940   80.9150 O.2   302  ASP302     -0.2718
     77  CB        73.7370   74.5770   80.7500 C.3   302  ASP302      0.1424
     78  CG        73.2100   75.2550   81.9660 C.2   302  ASP302      0.3668
     79  OD1       73.3220   74.6770   83.0610 O.co2 302  ASP302     -0.2456
     80  OD2       72.6800   76.3720   81.8200 O.co2 302  ASP302     -0.2456
     81  N         72.2940   71.7950   82.4090 N.am  303  GLY303     -0.1942
     82  CA        71.0680   71.3240   83.0360 C.3   303  GLY303      0.2014
     83  C         70.7020   69.8540   82.8630 C.2   303  GLY303      0.2639
     84  O         70.9330   69.2570   81.8070 O.2   303  GLY303     -0.2714
     85  N         70.1370   69.2690   83.9190 N.am  304  GLY304     -0.1939
     86  CA        69.7110   67.8830   83.8750 C.3   304  GLY304      0.2014
     87  C         70.7770   66.8320   84.1040 C.2   304  GLY304      0.2639
     88  O         70.4870   65.6350   84.0020 O.2   304  GLY304     -0.2714
     89  N         72.0090   67.2530   84.3840 N.am  305  ILE305     -0.1963
     90  CA        73.0980   66.3110   84.6340 C.3   305  ILE305      0.1727
     91  C         72.9750   65.8030   86.0630 C.2   305  ILE305      0.2616
     92  O         73.2400   66.5340   87.0180 O.2   305  ILE305     -0.2715
     93  CB        74.4840   66.9590   84.4440 C.3   305  ILE305      0.0290
     94  CG1       74.6430   67.4620   83.0020 C.3   305  ILE305      0.0022
     95  CG2       75.5960   65.9800   84.8410 C.3   305  ILE305      0.0023
     96  CD1       74.5110   66.4000   81.9370 C.3   305  ILE305      0.0001
     97  N         72.5330   64.5590   86.1980 N.am  306  GLN306     -0.1977
     98  CA        72.3520   63.9290   87.5000 C.3   306  GLN306      0.1601
     99  C         73.4620   62.9230   87.8070 C.2   306  GLN306      0.2287
    100  O         73.5810   62.4600   88.9390 O.2   306  GLN306     -0.2864
    101  CB        71.0100   63.1930   87.5460 C.3   306  GLN306      0.0394
    102  CG        69.8080   63.9600   87.0160 C.3   306  GLN306      0.0908
    103  CD        68.6500   63.0340   86.6450 C.2   306  GLN306      0.2608
    104  OE1       68.8570   61.8640   86.3060 O.2   306  GLN306     -0.2717
    105  NE2       67.4350   63.5660   86.6640 N.am  306  GLN306     -0.0878
    106  N         77.7430   71.7370   82.0420 N.3   323  MET323     -0.1230
    107  CA        77.6030   72.5680   83.2350 C.3   323  MET323      0.1702
    108  C         76.6820   71.8740   84.2320 C.2   323  MET323      0.2592
    109  O         75.6170   71.3910   83.8550 O.2   323  MET323     -0.2718
    110  CB        77.0370   73.9410   82.8490 C.3   323  MET323      0.0401
    111  CG        76.9250   74.9330   83.9970 C.3   323  MET323      0.0596
    112  SD        76.4830   76.5890   83.4430 S.3   323  MET323     -0.1393
    113  CE        78.0770   77.2100   82.9180 C.3   323  MET323      0.0692
    114  N         77.0920   71.8180   85.4940 N.am  324  MET324     -0.1965
    115  CA        76.3020   71.1750   86.5360 C.3   324  MET324      0.1736
    116  C         75.9960   72.1070   87.7000 C.2   324  MET324      0.2617
    117  O         76.7610   73.0280   88.0060 O.2   324  MET324     -0.2715
    118  CB        77.0460   69.9700   87.0930 C.3   324  MET324      0.0427
    119  CG        77.3700   68.9020   86.0950 C.3   324  MET324      0.0599
    120  SD        79.1020   68.4530   86.1670 S.3   324  MET324     -0.1393
    121  CE        79.2270   67.8580   87.8140 C.3   324  MET324      0.0692
    122  N         74.8810   71.8360   88.3660 N.am  325  GLY325     -0.1940
    123  CA        74.4710   72.6150   89.5170 C.3   325  GLY325      0.2014
    124  C         74.3500   71.6800   90.7000 C.2   325  GLY325      0.2639
    125  O         75.1720   71.7250   91.6110 O.2   325  GLY325     -0.2714
    126  N         73.3890   70.7620   90.6500 N.am  326  SER326     -0.1949
    127  CA        73.1970   69.8270   91.7500 C.3   326  SER326      0.1924
    128  C         74.3240   68.8220   91.9040 C.2   326  SER326      0.2314
    129  O         74.6410   68.4180   93.0240 O.2   326  SER326     -0.2863
    130  CB        71.8540   69.0940   91.6460 C.3   326  SER326      0.2116
    131  OG        71.7860   68.2780   90.4920 O.3   326  SER326     -0.2180
    132  N         70.7250   74.0710   98.1740 N.3   349  TYR349     -0.1241
    133  CA        70.8300   74.1920   96.7350 C.3   349  TYR349      0.1605
    134  C         69.5100   74.8200   96.2950 C.2   349  TYR349      0.2264
    135  O         68.4320   74.2780   96.5700 O.2   349  TYR349     -0.2867
    136  CB        71.0350   72.8400   96.0510 C.3   349  TYR349      0.0534
    137  CG        71.1320   72.9790   94.5460 C.ar  349  TYR349     -0.0201
    138  CD1       71.8950   74.0000   93.9740 C.ar  349  TYR349     -0.0009
    139  CD2       70.4090   72.1450   93.6930 C.ar  349  TYR349     -0.0009
    140  CE1       71.9290   74.1960   92.6050 C.ar  349  TYR349      0.0417
    141  CE2       70.4390   72.3340   92.3100 C.ar  349  TYR349      0.0417
    142  CZ        71.1990   73.3670   91.7740 C.ar  349  TYR349      0.1957
    143  OH        71.2100   73.5990   90.4120 O.3   349  TYR349     -0.2866
    144  N         67.3480   77.1680   93.0920 N.3   351  GLY351     -0.1210
    145  CA        67.2950   77.7250   91.7590 C.3   351  GLY351      0.1956
    146  C         67.3580   79.2330   91.8460 C.2   351  GLY351      0.2612
    147  O         66.7910   79.8310   92.7610 O.2   351  GLY351     -0.2717
    148  N         68.0490   79.8450   90.8930 N.am  352  MET352     -0.1965
    149  CA        68.1970   81.2920   90.8470 C.3   352  MET352      0.1736
    150  C         66.8880   82.0250   90.5670 C.2   352  MET352      0.2617
    151  O         66.8220   83.2540   90.6480 O.2   352  MET352     -0.2715
    152  CB        69.2650   81.6810   89.8240 C.3   352  MET352      0.0427
    153  CG        70.6720   81.2500   90.2240 C.3   352  MET352      0.0599
    154  SD        71.1030   81.7340   91.9190 S.3   352  MET352     -0.1393
    155  CE        71.6950   83.3980   91.6460 C.3   352  MET352      0.0692
    156  N         65.8540   81.2670   90.2330 N.am  353  GLY353     -0.1955
    157  CA        64.5580   81.8510   89.9720 C.3   353  GLY353      0.1869
    158  C         63.6400   81.5920   91.1470 C.2   353  GLY353      0.2309
    159  O         62.4250   81.7260   91.0210 O.2   353  GLY353     -0.2863
    160  N         60.5240   80.5840   89.2120 N.3   363  GLN363     -0.1231
    161  CA        60.8410   79.6250   88.1630 C.3   363  GLN363      0.1698
    162  C         61.7870   78.5820   88.7000 C.2   363  GLN363      0.2592
    163  O         62.1000   77.6090   88.0170 O.2   363  GLN363     -0.2718
    164  CB        61.4630   80.3280   86.9670 C.3   363  GLN363      0.0381
    165  CG        60.4830   81.2230   86.2450 C.3   363  GLN363      0.0905
    166  CD        61.1260   81.9940   85.1260 C.2   363  GLN363      0.2608
    167  OE1       61.1990   83.2260   85.1640 O.2   363  GLN363     -0.2717
    168  NE2       61.6080   81.2770   84.1190 N.am  363  GLN363     -0.0878
    169  N         62.1920   78.7630   89.9490 N.am  364  GLY364     -0.1957
    170  CA        63.0920   77.8280   90.5840 C.3   364  GLY364      0.1869
    171  C         62.5340   77.4850   91.9450 C.2   364  GLY364      0.2309
    172  O         61.6350   78.1680   92.4360 O.2   364  GLY364     -0.2863
@<TRIPOS>BOND
     1    23    24    1
     2    18    17    2
     3    17    16    1
     4    26    25    2
     5    25    24    1
     6    24    27    1
     7    34    35    1
     8    16    15    1
     9    16    19    1
    10    27    28    1
    11    35    36    1
    12    19    20    1
    13    36    37    2
    14    73    74    1
    15    28    29    1
    16    20    22   am
    17    20    21    2
    18    29    30    1
    19    77    74    1
    20    77    78    1
    21    74    75    1
    22    76    75    2
    23    75    81   am
    24    38    39    1
    25    84    83    2
    26    80    78   ar
    27    96    94    1
    28    30    31    2
    29    78    79   ar
    30   106   107    1
    31    72    70    1
    32    39    40    1
    33    81    82    1
    34    40    41    2
    35    69    68    2
    36    32    31    1
    37   110   107    1
    38   110   111    1
    39    83    82    1
    40    83    85   am
    41   113   112    1
    42    31    33    1
    43    94    93    1
    44   107   108    1
    45    68    67    1
    46   112   111    1
    47    70    71    1
    48    70    67    1
    49   109   108    2
    50    86    85    1
    51    86    87    1
    52    88    87    2
    53    87    89   am
    54   168   166   am
    55   108   114   am
    56    67    66    1
    57    89    90    1
    58    93    90    1
    59    93    95    1
    60    42    43    1
    61    90    91    1
    62   166   167    2
    63   166   165    1
    64   114   115    1
    65    65    64    1
    66    43    44    1
    67    91    97   am
    68    91    92    2
    69   119   120    1
    70   119   118    1
    71   120   121    1
    72    97    98    1
    73   165   164    1
    74    64    61    1
    75   104   103    2
    76   115   118    1
    77   115   116    1
    78   103   105   am
    79   103   102    1
    80   164   161    1
    81    44    45    2
    82    44    46   am
    83   102   101    1
    84     6     5    1
    85     2     5    1
    86     2     1    1
    87     2     3    1
    88    63    62    2
    89    62    61    1
    90    98   101    1
    91    98    99    1
    92    61    60    1
    93   116   117    2
    94   116   122   am
    95    99   100    2
    96    46    47    1
    97   163   162    2
    98     3     4    2
    99   161   162    1
   100   161   160    1
   101   122   123    1
   102    60    54   am
   103   162   169   am
   104    47    48    1
   105    47    50    1
   106   123   124    1
   107    59    57    1
   108    13    12    1
   109    13    14    1
   110    48    52   am
   111    48    49    2
   112    54    55    2
   113    54    53    1
   114   152   153    1
   115   152   149    1
   116    12    11    1
   117   169   170    1
   118    50    51    1
   119   157   156    1
   120   157   158    1
   121    52    53    1
   122   153   154    1
   123   156   150   am
   124     7     8    1
   125   143   142    1
   126   131   130    1
   127   150   151    2
   128   150   149    1
   129   170   171    1
   130   126   124   am
   131   126   127    1
   132    53    56    1
   133   124   125    2
   134   149   148    1
   135   148   146   am
   136    57    56    1
   137   159   158    2
   138    11     8    1
   139     8     9    1
   140    56    58    1
   141   130   127    1
   142   155   154    1
   143   127   128    1
   144   145   146    1
   145   145   144    1
   146   142   141   ar
   147   142   140   ar
   148   146   147    2
   149   128   129    2
   150   171   172    2
   151   141   139   ar
   152   140   138   ar
   153     9    10    2
   154   139   137   ar
   155   138   137   ar
   156   137   136    1
   157   136   133    1
   158   134   135    2
   159   134   133    1
   160   133   132    1
