@<TRIPOS>MOLECULE
tmp/1jraA00.pdb
 232 227 0 0 0
SMALL
GASTEIGER

@<TRIPOS>ATOM
      1  N          4.8530   11.4120   26.6950 N.3     5  LYS5       -0.1231
      2  CA         4.1340   10.3570   25.9990 C.3     5  LYS5        0.1693
      3  C          3.9850   10.7180   24.5260 C.2     5  LYS5        0.2591
      4  O          4.1200    9.8680   23.6510 O.2     5  LYS5       -0.2718
      5  CB         2.7560   10.1490   26.6240 C.3     5  LYS5        0.0285
      6  CG         2.0820    8.8690   26.1660 C.3     5  LYS5        0.0035
      7  CD         0.7420    8.6460   26.8420 C.3     5  LYS5        0.0206
      8  CE        -0.3020    9.6060   26.3240 C.3     5  LYS5        0.1093
      9  NZ        -1.6700    9.1500   26.7010 N.3     5  LYS5       -0.1314
     10  N          3.7090   11.9880   24.2550 N.am    6  LYS6       -0.1980
     11  CA         3.5540   12.4440   22.8820 C.3     6  LYS6        0.1596
     12  C          4.8840   12.3610   22.1430 C.2     6  LYS6        0.2287
     13  O          4.9240   11.9800   20.9780 O.2     6  LYS6       -0.2864
     14  CB         3.0010   13.8770   22.8560 C.3     6  LYS6        0.0298
     15  CG         1.5310   13.9670   23.2670 C.3     6  LYS6        0.0038
     16  CD         1.0450   15.4130   23.3400 C.3     6  LYS6        0.0206
     17  CE        -0.4640   15.4780   23.5520 C.3     6  LYS6        0.1093
     18  NZ        -0.9590   16.8790   23.6720 N.3     6  LYS6       -0.1314
     19  N          5.5440    8.8360   21.4050 N.3     9  GLY9       -0.1210
     20  CA         4.6470    8.4280   20.3410 C.3     9  GLY9        0.1956
     21  C          5.1400    8.8480   18.9710 C.2     9  GLY9        0.2611
     22  O          5.1370    8.0490   18.0360 O.2     9  GLY9       -0.2717
     23  N          5.5590   10.1060   18.8420 N.am   10  ARG10      -0.1979
     24  CA         6.0540   10.5940   17.5590 C.3    10  ARG10       0.1597
     25  C          7.2700    9.7890   17.1130 C.2    10  ARG10       0.2287
     26  O          7.3930    9.4430   15.9420 O.2    10  ARG10      -0.2864
     27  CB         6.4380   12.0790   17.6420 C.3    10  ARG10       0.0334
     28  CG         5.2660   13.0410   17.7920 C.3    10  ARG10       0.0492
     29  CD         5.7320   14.4840   17.6380 C.3    10  ARG10       0.2205
     30  NE         6.2580   14.7280   16.2940 N.pl3  10  ARG10      -0.0865
     31  CZ         5.5090   14.9590   15.2170 C.cat  10  ARG10       0.5346
     32  NH1        4.1880   14.9920   15.3100 N.pl3  10  ARG10       0.1354
     33  NH2        6.0820   15.1380   14.0350 N.pl3  10  ARG10       0.1354
     34  N          8.0700    6.7060   17.9480 N.3    12  SER12      -0.1202
     35  CA         7.6450    5.3510   17.6190 C.3    12  SER12       0.2020
     36  C          7.0210    5.2700   16.2240 C.2    12  SER12       0.2619
     37  O          7.3380    4.3550   15.4640 O.2    12  SER12      -0.2717
     38  CB         6.6510    4.8370   18.6660 C.3    12  SER12       0.2103
     39  OG         7.1950    4.9240   19.9760 O.3    12  SER12      -0.2182
     40  N          6.1420    6.2170   15.8840 N.am   13  TRP13      -0.1961
     41  CA         5.5170    6.2160   14.5570 C.3    13  TRP13       0.1771
     42  C          6.5550    6.4150   13.4570 C.2    13  TRP13       0.2619
     43  O          6.4740    5.7920   12.3990 O.2    13  TRP13      -0.2715
     44  CB         4.4570    7.3180   14.4280 C.3    13  TRP13       0.0590
     45  CG         3.2010    7.0590   15.1950 C.ar   13  TRP13       0.0006
     46  CD1        2.6570    7.8520   16.1670 C.ar   13  TRP13       0.0946
     47  CD2        2.3090    5.9460   15.0370 C.ar   13  TRP13       0.0152
     48  NE1        1.4800    7.3020   16.6200 N.ar   13  TRP13      -0.2442
     49  CE2        1.2430    6.1330   15.9470 C.ar   13  TRP13       0.0810
     50  CE3        2.3080    4.8070   14.2170 C.ar   13  TRP13       0.0012
     51  CZ2        0.1850    5.2250   16.0620 C.ar   13  TRP13       0.0191
     52  CZ3        1.2560    3.9040   14.3310 C.ar   13  TRP13       0.0001
     53  CH2        0.2080    4.1200   15.2500 C.ar   13  TRP13       0.0015
     54  N          7.5150    7.2990   13.6980 N.am   14  LYS14      -0.1977
     55  CA         8.5650    7.5600   12.7150 C.3    14  LYS14       0.1596
     56  C          9.2960    6.2510   12.3960 C.2    14  LYS14       0.2287
     57  O          9.5040    5.9150   11.2380 O.2    14  LYS14      -0.2864
     58  CB         9.5470    8.5990   13.2660 C.3    14  LYS14       0.0298
     59  CG        10.8010    8.8170   12.4260 C.3    14  LYS14       0.0038
     60  CD        10.4950    9.4330   11.0670 C.3    14  LYS14       0.0206
     61  CE        11.7790    9.8860   10.3780 C.3    14  LYS14       0.1093
     62  NZ        11.5380   10.4340    9.0120 N.3    14  LYS14      -0.1314
     63  N          6.6230    3.4800   10.6900 N.3    17  HIS17      -0.1241
     64  CA         6.3500    3.7020    9.2760 C.3    17  HIS17       0.1621
     65  C          7.5650    3.4820    8.3820 C.2    17  HIS17       0.2264
     66  O          7.4320    3.0050    7.2520 O.2    17  HIS17      -0.2867
     67  CB         5.7850    5.1100    9.0790 C.3    17  HIS17       0.0745
     68  CG         4.4210    5.2910    9.6660 C.ar   17  HIS17       0.0817
     69  ND1        3.3360    4.5430    9.2630 N.ar   17  HIS17      -0.2268
     70  CD2        3.9670    6.1170   10.6410 C.ar   17  HIS17       0.1154
     71  CE1        2.2730    4.8980    9.9640 C.ar   17  HIS17       0.1986
     72  NE2        2.6290    5.8510   10.8070 N.ar   17  HIS17      -0.2212
     73  N          5.2900   -5.7290   19.0490 N.3    42  TYR42      -0.1241
     74  CA         5.3650   -4.2670   19.0520 C.3    42  TYR42       0.1605
     75  C          4.1430   -3.7050   19.7880 C.2    42  TYR42       0.2264
     76  O          4.2650   -2.8240   20.6380 O.2    42  TYR42      -0.2867
     77  CB         5.3940   -3.7430   17.6100 C.3    42  TYR42       0.0534
     78  CG         5.3110   -2.2360   17.4740 C.ar   42  TYR42      -0.0201
     79  CD1        6.4470   -1.4300   17.5940 C.ar   42  TYR42      -0.0009
     80  CD2        4.0940   -1.6170   17.2120 C.ar   42  TYR42      -0.0009
     81  CE1        6.3610   -0.0300   17.4500 C.ar   42  TYR42       0.0417
     82  CE2        3.9970   -0.2340   17.0700 C.ar   42  TYR42       0.0417
     83  CZ         5.1250    0.5530   17.1880 C.ar   42  TYR42       0.1957
     84  OH         4.9980    1.9160   17.0310 O.3    42  TYR42      -0.2866
     85  N          4.3540   -1.9670   23.6650 N.3    46  TYR46      -0.1241
     86  CA         4.3640   -0.5050   23.5870 C.3    46  TYR46       0.1605
     87  C          4.3790    0.1330   24.9890 C.2    46  TYR46       0.2264
     88  O          3.5990   -0.2520   25.8660 O.2    46  TYR46      -0.2867
     89  CB         3.1640    0.0160   22.7880 C.3    46  TYR46       0.0534
     90  CG         3.3300    1.4720   22.4280 C.ar   46  TYR46      -0.0201
     91  CD1        4.1910    1.8620   21.3910 C.ar   46  TYR46      -0.0009
     92  CD2        2.7310    2.4690   23.1960 C.ar   46  TYR46      -0.0009
     93  CE1        4.4560    3.2100   21.1390 C.ar   46  TYR46       0.0417
     94  CE2        2.9890    3.8200   22.9510 C.ar   46  TYR46       0.0417
     95  CZ         3.8530    4.1830   21.9240 C.ar   46  TYR46       0.1957
     96  OH         4.1220    5.5140   21.7000 O.3    46  TYR46      -0.2866
     97  N         -2.4600    1.8600   28.5100 N.3    50  GLU50      -0.1231
     98  CA        -3.6910    2.1300   27.7750 C.3    50  GLU50       0.1699
     99  C         -3.4590    2.0670   26.2680 C.2    50  GLU50       0.2592
    100  O         -4.2540    1.4890   25.5270 O.2    50  GLU50      -0.2718
    101  CB        -4.2440    3.5100   28.1550 C.3    50  GLU50       0.0402
    102  CG        -4.6910    3.6080   29.6100 C.3    50  GLU50       0.1161
    103  CD        -3.5800    4.0250   30.5680 C.2    50  GLU50       0.3649
    104  OE1       -2.3920    3.7210   30.3010 O.co2  50  GLU50      -0.2457
    105  OE2       -3.9050    4.6530   31.6040 O.co2  50  GLU50      -0.2457
    106  N         -2.3560    2.6590   25.8210 N.am   51  CYS51      -0.1970
    107  CA        -2.0300    2.6700   24.3990 C.3    51  CYS51       0.1712
    108  C         -1.8990    1.2430   23.8700 C.2    51  CYS51       0.2296
    109  O         -2.4880    0.8900   22.8430 O.2    51  CYS51      -0.2864
    110  CB        -0.7110    3.3970   24.1590 C.3    51  CYS51       0.0983
    111  SG        -0.4920    5.0380   24.9210 S.3    51  CYS51      -0.0798
    112  N         -5.2530   -0.7620   23.6650 N.3    54  HIS54      -0.1226
    113  CA        -6.0340   -0.4070   22.4910 C.3    54  HIS54       0.1752
    114  C         -5.3720   -0.8420   21.1920 C.2    54  HIS54       0.2596
    115  O         -6.0510   -1.2930   20.2660 O.2    54  HIS54      -0.2718
    116  CB        -6.2680    1.1040   22.4500 C.3    54  HIS54       0.0759
    117  CG        -7.0740    1.6210   23.6010 C.ar   54  HIS54       0.0818
    118  ND1       -8.2980    1.0900   23.9480 N.ar   54  HIS54      -0.2268
    119  CD2       -6.8340    2.6220   24.4810 C.ar   54  HIS54       0.1154
    120  CE1       -8.7770    1.7410   24.9940 C.ar   54  HIS54       0.1986
    121  NE2       -7.9080    2.6770   25.3360 N.ar   54  HIS54      -0.2212
    122  N         -4.0500   -0.7080   21.1140 N.am   55  PHE55      -0.1976
    123  CA        -3.3430   -1.0620   19.8850 C.3    55  PHE55       0.1639
    124  C         -3.3770   -2.5560   19.6170 C.2    55  PHE55       0.2290
    125  O         -3.4730   -2.9750   18.4660 O.2    55  PHE55      -0.2864
    126  CB        -1.8910   -0.5690   19.9200 C.3    55  PHE55       0.0560
    127  CG        -1.2730   -0.4430   18.5570 C.ar   55  PHE55      -0.0200
    128  CD1       -1.7970    0.4470   17.6270 C.ar   55  PHE55      -0.0042
    129  CD2       -0.1890   -1.2310   18.1910 C.ar   55  PHE55      -0.0042
    130  CE1       -1.2540    0.5490   16.3530 C.ar   55  PHE55      -0.0003
    131  CE2        0.3600   -1.1350   16.9180 C.ar   55  PHE55      -0.0003
    132  CZ        -0.1720   -0.2470   15.9990 C.ar   55  PHE55      -0.0000
    133  N         -0.3570    2.9420    7.6050 N.3    77  CYS77      -0.1235
    134  CA        -0.9950    4.2460    7.5350 C.3    77  CYS77       0.1677
    135  C         -2.4350    4.1660    8.0300 C.2    77  CYS77       0.2270
    136  O         -2.8800    5.0200    8.7950 O.2    77  CYS77      -0.2867
    137  CB        -0.9680    4.7710    6.1040 C.3    77  CYS77       0.0956
    138  SG        -1.6000    6.4700    5.9370 S.3    77  CYS77      -0.0801
    139  N         -2.4930    3.6920   11.8070 N.3    80  HIS80      -0.1226
    140  CA        -2.1580    4.9240   12.5080 C.3    80  HIS80       0.1752
    141  C         -3.3970    5.8310   12.4610 C.2    80  HIS80       0.2596
    142  O         -3.7180    6.5040   13.4410 O.2    80  HIS80      -0.2718
    143  CB        -0.9400    5.5930   11.8490 C.3    80  HIS80       0.0759
    144  CG        -0.3910    6.7660   12.6110 C.ar   80  HIS80       0.0818
    145  ND1        0.8660    7.2850   12.3700 N.ar   80  HIS80      -0.2268
    146  CD2       -0.9370    7.5470   13.5750 C.ar   80  HIS80       0.1154
    147  CE1        1.0680    8.3310   13.1510 C.ar   80  HIS80       0.1986
    148  NE2       -0.0110    8.5130   13.8930 N.ar   80  HIS80      -0.2212
    149  N         -4.1020    5.8370   11.3310 N.am   81  ASN81      -0.1974
    150  CA        -5.3090    6.6520   11.2230 C.3    81  ASN81       0.1688
    151  C         -6.3890    6.1510   12.1800 C.2    81  ASN81       0.2292
    152  O         -7.2420    6.9230   12.6190 O.2    81  ASN81      -0.2864
    153  CB        -5.8470    6.6650    9.7870 C.3    81  ASN81       0.1181
    154  CG        -5.1300    7.6760    8.9060 C.2    81  ASN81       0.2629
    155  OD1       -4.8150    8.7860    9.3470 O.2    81  ASN81      -0.2716
    156  ND2       -4.8870    7.3070    7.6520 N.am   81  ASN81      -0.0877
    157  N         -5.7440    5.0950   15.1110 N.3    83  VAL83      -0.1231
    158  CA        -5.3580    5.6790   16.3880 C.3    83  VAL83       0.1692
    159  C         -5.7040    7.1600   16.3640 C.2    83  VAL83       0.2592
    160  O         -6.1440    7.7140   17.3690 O.2    83  VAL83      -0.2718
    161  CB        -3.8500    5.5280   16.6730 C.3    83  VAL83       0.0266
    162  CG1       -3.4720    6.3730   17.8890 C.3    83  VAL83       0.0020
    163  CG2       -3.5170    4.0620   16.9430 C.3    83  VAL83       0.0020
    164  N         -5.5000    7.7970   15.2150 N.am   84  ASN84      -0.1974
    165  CA        -5.8140    9.2160   15.0710 C.3    84  ASN84       0.1688
    166  C         -7.3000    9.4380   15.3130 C.2    84  ASN84       0.2292
    167  O         -7.6850   10.3190   16.0790 O.2    84  ASN84      -0.2864
    168  CB        -5.4470    9.7260   13.6740 C.3    84  ASN84       0.1181
    169  CG        -3.9590    9.9130   13.5000 C.2    84  ASN84       0.2629
    170  OD1       -3.2240   10.0230   14.4790 O.2    84  ASN84      -0.2716
    171  ND2       -3.5060    9.9720   12.2500 N.am   84  ASN84      -0.0877
    172  N         -9.2950    7.5820   16.9200 N.3    86  TYR86      -0.1227
    173  CA        -9.5340    7.2950   18.3270 C.3    86  TYR86       0.1736
    174  C         -9.2470    8.5060   19.2210 C.2    86  TYR86       0.2595
    175  O        -10.0030    8.7990   20.1510 O.2    86  TYR86      -0.2718
    176  CB        -8.6590    6.1220   18.7700 C.3    86  TYR86       0.0548
    177  CG        -8.9440    5.6570   20.1740 C.ar   86  TYR86      -0.0200
    178  CD1      -10.0550    4.8600   20.4510 C.ar   86  TYR86      -0.0009
    179  CD2       -8.1220    6.0330   21.2330 C.ar   86  TYR86      -0.0009
    180  CE1      -10.3400    4.4470   21.7470 C.ar   86  TYR86       0.0417
    181  CE2       -8.3990    5.6290   22.5350 C.ar   86  TYR86       0.0417
    182  CZ        -9.5090    4.8360   22.7820 C.ar   86  TYR86       0.1957
    183  OH        -9.7850    4.4290   24.0650 O.3    86  TYR86      -0.2866
    184  N         -8.1450    9.1980   18.9470 N.am   87  LEU87      -0.1980
    185  CA        -7.7710   10.3640   19.7390 C.3    87  LEU87       0.1596
    186  C         -8.4120   11.6320   19.1830 C.2    87  LEU87       0.2287
    187  O         -8.1000   12.7430   19.6200 O.2    87  LEU87      -0.2864
    188  CB        -6.2470   10.5180   19.7680 C.3    87  LEU87       0.0297
    189  CG        -5.4510    9.3500   20.3630 C.3    87  LEU87       0.0022
    190  CD1       -3.9630    9.6230   20.2070 C.3    87  LEU87       0.0001
    191  CD2       -5.8120    9.1670   21.8360 C.3    87  LEU87       0.0001
    192  N         -8.0560   12.9700   16.2270 N.3    89  LYS89      -0.1245
    193  CA        -7.0650   13.7470   15.4890 C.3    89  LYS89       0.1561
    194  C         -7.4230   13.6360   14.0080 C.2    89  LYS89       0.2260
    195  O         -8.1370   12.7170   13.6140 O.2    89  LYS89      -0.2867
    196  CB        -5.6670   13.1720   15.7290 C.3    89  LYS89       0.0271
    197  CG        -5.2890   13.0460   17.2030 C.3    89  LYS89       0.0035
    198  CD        -3.9760   12.2890   17.3860 C.3    89  LYS89       0.0206
    199  CE        -2.8120   13.0210   16.7410 C.3    89  LYS89       0.1093
    200  NZ        -2.5690   14.3370   17.3990 N.3    89  LYS89      -0.1314
    201  N         -4.8340   11.2180    8.1120 N.3    92  TYR92      -0.1241
    202  CA        -3.6460   11.4350    7.2950 C.3    92  TYR92       0.1605
    203  C         -3.8340   10.7630    5.9370 C.2    92  TYR92       0.2264
    204  O         -4.2210    9.5960    5.8660 O.2    92  TYR92      -0.2867
    205  CB        -2.4400   10.8240    8.0050 C.3    92  TYR92       0.0534
    206  CG        -1.0970   11.0720    7.3560 C.ar   92  TYR92      -0.0201
    207  CD1       -0.3710   12.2280    7.6330 C.ar   92  TYR92      -0.0009
    208  CD2       -0.5130   10.1070    6.5300 C.ar   92  TYR92      -0.0009
    209  CE1        0.9140   12.4130    7.1130 C.ar   92  TYR92       0.0417
    210  CE2        0.7660   10.2800    6.0070 C.ar   92  TYR92       0.0417
    211  CZ         1.4780   11.4300    6.3060 C.ar   92  TYR92       0.1957
    212  OH         2.7670   11.5740    5.8420 O.3    92  TYR92      -0.2866
    213  N          2.4460    7.2830    1.1690 N.3    97  ILE97      -0.1245
    214  CA         2.9780    6.6380    2.3670 C.3    97  ILE97       0.1561
    215  C          4.4070    6.1030    2.2540 C.2    97  ILE97       0.2260
    216  O          5.1820    6.2010    3.2060 O.2    97  ILE97      -0.2867
    217  CB         2.0560    5.4780    2.8260 C.3    97  ILE97       0.0252
    218  CG1        2.5040    4.9700    4.2000 C.3    97  ILE97       0.0019
    219  CG2        2.0730    4.3480    1.7930 C.3    97  ILE97       0.0019
    220  CD1        2.4210    6.0240    5.3010 C.3    97  ILE97       0.0001
    221  N          8.0880    8.1550    3.9790 N.3   101  TYR101     -0.1241
    222  CA         9.0110    7.5290    4.9090 C.3   101  TYR101      0.1605
    223  C         10.2440    6.8860    4.2980 C.2   101  TYR101      0.2264
    224  O         10.6860    5.8050    4.7020 O.2   101  TYR101     -0.2867
    225  CB         8.2530    6.5450    5.8040 C.3   101  TYR101      0.0534
    226  CG         7.2860    7.2610    6.7230 C.ar  101  TYR101     -0.0201
    227  CD1        5.9520    7.4550    6.3580 C.ar  101  TYR101     -0.0009
    228  CD2        7.7240    7.8140    7.9270 C.ar  101  TYR101     -0.0009
    229  CE1        5.0840    8.1860    7.1710 C.ar  101  TYR101      0.0417
    230  CE2        6.8710    8.5420    8.7410 C.ar  101  TYR101      0.0417
    231  CZ         5.5510    8.7250    8.3600 C.ar  101  TYR101      0.1957
    232  OH         4.7010    9.4390    9.1750 O.3   101  TYR101     -0.2866
@<TRIPOS>BOND
     1   213   214    1
     2   219   217    1
     3   215   214    1
     4   215   216    2
     5   214   217    1
     6   217   218    1
     7   221   222    1
     8   218   220    1
     9   223   224    2
    10   223   222    1
    11   222   225    1
    12   225   226    1
    13   212   211    1
    14   204   203    2
    15   138   137    1
    16   203   202    1
    17   210   211   ar
    18   210   208   ar
    19   137   134    1
    20   211   209   ar
    21   227   226   ar
    22   227   229   ar
    23   208   206   ar
    24   226   228   ar
    25   209   207   ar
    26   229   231   ar
    27    66    65    2
    28   202   205    1
    29   202   201    1
    30   206   207   ar
    31   206   205    1
    32   134   133    1
    33   134   135    1
    34   156   154   am
    35   228   230   ar
    36   135   136    2
    37   231   230   ar
    38   231   232    1
    39    65    64    1
    40   154   155    2
    41   154   153    1
    42    62    61    1
    43    67    64    1
    44    67    68    1
    45    69    68   ar
    46    69    71   ar
    47    64    63    1
    48    68    70   ar
    49   153   150    1
    50    71    72   ar
    51    61    60    1
    52    70    72   ar
    53    60    59    1
    54   150   149    1
    55   150   151    1
    56    57    56    2
    57   149   141   am
    58   139   140    1
    59   143   140    1
    60   143   144    1
    61   151   152    2
    62   171   169   am
    63   145   144   ar
    64   145   147   ar
    65    56    55    1
    66    43    42    2
    67    59    58    1
    68   141   140    1
    69   141   142    2
    70   144   146   ar
    71    55    58    1
    72    55    54    1
    73   147   148   ar
    74    42    54   am
    75    42    41    1
    76   169   168    1
    77   169   170    2
    78   146   148   ar
    79   195   194    2
    80   168   165    1
    81   194   193    1
    82    33    31    1
    83    50    52   ar
    84    50    47   ar
    85    52    53   ar
    86    44    41    1
    87    44    45    1
    88    41    40    1
    89    47    45   ar
    90    47    49   ar
    91   165   164    1
    92   165   166    1
    93   157   158    1
    94    45    46   ar
    95   164   159   am
    96    31    32    1
    97    31    30    2
    98    53    51   ar
    99   166   167    2
   100    37    36    2
   101   193   196    1
   102   193   192    1
   103   196   197    1
   104    40    36   am
   105    26    25    2
   106    49    51   ar
   107    49    48   ar
   108   132   130   ar
   109   132   131   ar
   110    46    48   ar
   111    36    35    1
   112    30    29    1
   113   130   128   ar
   114   159   158    1
   115   159   160    2
   116   158   161    1
   117   161   163    1
   118   161   162    1
   119   199   198    1
   120   199   200    1
   121   131   129   ar
   122   172   173    1
   123    84    83    1
   124    82    83   ar
   125    82    80   ar
   126    25    24    1
   127    83    81   ar
   128   197   198    1
   129    80    78   ar
   130    81    79   ar
   131    78    79   ar
   132    78    77    1
   133    24    27    1
   134    24    23    1
   135    77    74    1
   136    35    34    1
   137    35    38    1
   138   128   127   ar
   139    29    28    1
   140    27    28    1
   141    22    21    2
   142   129   127   ar
   143   173   176    1
   144   173   174    1
   145   125   124    2
   146   127   126    1
   147    38    39    1
   148   176   177    1
   149    23    21   am
   150   184   174   am
   151   184   185    1
   152    21    20    1
   153    73    74    1
   154    74    75    1
   155   186   187    2
   156   186   185    1
   157   174   175    2
   158   124   123    1
   159   185   188    1
   160   188   189    1
   161    75    76    2
   162   123   126    1
   163   123   122    1
   164   177   178   ar
   165   177   179   ar
   166   190   189    1
   167   115   114    2
   168    20    19    1
   169   189   191    1
   170   178   180   ar
   171    13    12    2
   172   122   114   am
   173    93    91   ar
   174    93    95   ar
   175   114   113    1
   176   179   181   ar
   177    91    90   ar
   178    96    95    1
   179   180   182   ar
   180    95    94   ar
   181    12    11    1
   182    90    89    1
   183    90    92   ar
   184   116   113    1
   185   116   117    1
   186   113   112    1
   187   181   182   ar
   188   182   183    1
   189    89    86    1
   190   109   108    2
   191    14    11    1
   192    14    15    1
   193    11    10    1
   194    94    92   ar
   195    15    16    1
   196    16    17    1
   197    17    18    1
   198    86    85    1
   199    86    87    1
   200   117   118   ar
   201   117   119   ar
   202     4     3    2
   203   108   107    1
   204   118   120   ar
   205   110   107    1
   206   110   111    1
   207    10     3   am
   208   107   106    1
   209   119   121   ar
   210     3     2    1
   211    87    88    2
   212   120   121   ar
   213   100    99    2
   214   106    99   am
   215     2     5    1
   216     2     1    1
   217     6     5    1
   218     6     7    1
   219    99    98    1
   220     8     9    1
   221     8     7    1
   222    98   101    1
   223    98    97    1
   224   101   102    1
   225   102   103    1
   226   104   103   ar
   227   103   105   ar
