@<TRIPOS>MOLECULE
tmp/1jrkC01.pdb
 131 128 0 0 0
SMALL
GASTEIGER

@<TRIPOS>ATOM
      1  N         32.7770   20.6990   25.5530 N.3     3  VAL3       -0.1245
      2  CA        31.9320   21.8810   25.5670 C.3     3  VAL3        0.1561
      3  C         31.9850   22.4230   26.9970 C.2     3  VAL3        0.2260
      4  O         32.3990   21.7150   27.9170 O.2     3  VAL3       -0.2867
      5  CB        30.4370   21.5770   25.1170 C.3     3  VAL3        0.0252
      6  CG1       30.4150   21.0630   23.6580 C.3     3  VAL3        0.0019
      7  CG2       29.7790   20.5730   26.0360 C.3     3  VAL3        0.0019
      8  N         19.2700   30.1190   27.0840 N.3    17  VAL17      -0.1231
      9  CA        19.1220   30.4640   25.6700 C.3    17  VAL17       0.1692
     10  C         18.4370   29.2890   24.9790 C.2    17  VAL17       0.2592
     11  O         18.3520   28.1880   25.5350 O.2    17  VAL17      -0.2718
     12  CB        20.5040   30.6670   24.9940 C.3    17  VAL17       0.0266
     13  CG1       21.1470   31.9490   25.4830 C.3    17  VAL17       0.0020
     14  CG2       21.4340   29.4750   25.3170 C.3    17  VAL17       0.0020
     15  N         17.9490   29.5070   23.7700 N.am   18  LYS18      -0.1966
     16  CA        17.2980   28.4360   23.0230 C.3    18  LYS18       0.1728
     17  C         18.3870   27.6630   22.2990 C.2    18  LYS18       0.2616
     18  O         19.2310   28.2520   21.6170 O.2    18  LYS18      -0.2715
     19  CB        16.3080   29.0040   21.9970 C.3    18  LYS18       0.0311
     20  CG        14.9650   29.4290   22.5830 C.3    18  LYS18       0.0038
     21  CD        14.0710   30.1340   21.5670 C.3    18  LYS18       0.0206
     22  CE        12.8570   30.7720   22.2520 C.3    18  LYS18       0.1093
     23  NZ        11.8650   31.3560   21.2830 N.3    18  LYS18      -0.1314
     24  N         18.3930   26.3420   22.4640 N.am   19  HIS19      -0.1959
     25  CA        19.3980   25.5470   21.7970 C.3    19  HIS19       0.1787
     26  C         19.3170   25.8500   20.3000 C.2    19  HIS19       0.2620
     27  O         18.2320   25.7730   19.7010 O.2    19  HIS19      -0.2715
     28  CB        19.1600   24.0570   22.0360 C.3    19  HIS19       0.0785
     29  CG        20.2250   23.1820   21.4510 C.ar   19  HIS19       0.0821
     30  ND1       20.5240   23.1760   20.1030 N.ar   19  HIS19      -0.2267
     31  CD2       21.0950   22.3260   22.0350 C.ar   19  HIS19       0.1154
     32  CE1       21.5350   22.3540   19.8850 C.ar   19  HIS19       0.1986
     33  NE2       21.9000   21.8260   21.0380 N.ar   19  HIS19      -0.2212
     34  N         20.4660   26.1700   19.7080 N.am   20  LYS20      -0.1977
     35  CA        20.5670   26.5210   18.2910 C.3    20  LYS20       0.1596
     36  C         19.8900   25.5260   17.3890 C.2    20  LYS20       0.2287
     37  O         19.1360   25.8910   16.4990 O.2    20  LYS20      -0.2864
     38  CB        22.0280   26.6350   17.8630 C.3    20  LYS20       0.0298
     39  CG        22.8260   27.7070   18.5820 C.3    20  LYS20       0.0038
     40  CD        24.3260   27.3480   18.5480 C.3    20  LYS20       0.0206
     41  CE        25.2030   28.2920   19.3880 C.3    20  LYS20       0.1093
     42  NZ        26.6440   27.8610   19.4030 N.3    20  LYS20      -0.1314
     43  N         18.5280   25.7840   27.2520 N.3    26  ILE26      -0.1231
     44  CA        19.7730   25.2580   27.7600 C.3    26  ILE26       0.1692
     45  C         20.5980   26.3570   28.3800 C.2    26  ILE26       0.2592
     46  O         20.2760   27.5490   28.2260 O.2    26  ILE26      -0.2718
     47  CB        20.5970   24.6280   26.6060 C.3    26  ILE26       0.0266
     48  CG1       21.7400   23.7890   27.1830 C.3    26  ILE26       0.0019
     49  CG2       21.1760   25.7180   25.6770 C.3    26  ILE26       0.0020
     50  CD1       22.5390   23.0700   26.1020 C.3    26  ILE26       0.0001
     51  N         21.6590   25.9740   29.0940 N.am   27  TYR27      -0.1976
     52  CA        22.5080   27.0000   29.6760 C.3    27  TYR27       0.1639
     53  C         23.4330   27.4950   28.5510 C.2    27  TYR27       0.2290
     54  O         23.7550   26.7370   27.6310 O.2    27  TYR27      -0.2864
     55  CB        23.3580   26.4730   30.8530 C.3    27  TYR27       0.0560
     56  CG        23.2160   25.0130   31.2330 C.ar   27  TYR27      -0.0198
     57  CD1       23.7140   24.0010   30.4240 C.ar   27  TYR27      -0.0009
     58  CD2       22.6310   24.6560   32.4480 C.ar   27  TYR27      -0.0009
     59  CE1       23.6310   22.6470   30.8230 C.ar   27  TYR27       0.0417
     60  CE2       22.5430   23.3440   32.8530 C.ar   27  TYR27       0.0417
     61  CZ        23.0350   22.3260   32.0460 C.ar   27  TYR27       0.1957
     62  OH        22.8580   20.9950   32.4400 O.3    27  TYR27      -0.2866
     63  N         26.5550   28.1190   26.4810 N.3    29  GLY29      -0.1210
     64  CA        27.7540   27.3150   26.4360 C.3    29  GLY29       0.1956
     65  C         28.1840   27.1170   24.9970 C.2    29  GLY29       0.2612
     66  O         27.5080   27.5850   24.0980 O.2    29  GLY29      -0.2717
     67  N         29.3030   26.4340   24.7930 N.am   30  GLY30      -0.1942
     68  CA        29.8050   26.2310   23.4590 C.3    30  GLY30       0.2014
     69  C         31.0230   25.3330   23.4960 C.2    30  GLY30       0.2638
     70  O         31.4630   24.9020   24.5720 O.2    30  GLY30      -0.2714
     71  N         31.5540   25.0400   22.3100 N.am   31  HIS31      -0.1973
     72  CA        32.7220   24.1900   22.1710 C.3    31  HIS31       0.1656
     73  C         33.9780   24.9360   22.5650 C.2    31  HIS31       0.2291
     74  O         34.0530   26.1690   22.4810 O.2    31  HIS31      -0.2864
     75  CB        32.8680   23.7140   20.7200 C.3    31  HIS31       0.0771
     76  CG        31.9470   22.5970   20.3470 C.ar   31  HIS31       0.0820
     77  ND1       30.5960   22.7740   20.1340 N.ar   31  HIS31      -0.2267
     78  CD2       32.1880   21.2820   20.1300 C.ar   31  HIS31       0.1154
     79  CE1       30.0450   21.6190   19.7970 C.ar   31  HIS31       0.1986
     80  NE2       30.9910   20.6970   19.7880 N.ar   31  HIS31      -0.2212
     81  N         26.4490   34.4360   23.0080 N.3    49  GLU49      -0.1245
     82  CA        25.0730   33.9650   22.9600 C.3    49  GLU49       0.1567
     83  C         24.1010   34.8600   23.7280 C.2    49  GLU49       0.2260
     84  O         22.9100   34.9250   23.4250 O.2    49  GLU49      -0.2867
     85  CB        24.9870   32.5290   23.4910 C.3    49  GLU49       0.0388
     86  CG        26.0420   31.6550   22.8770 C.3    49  GLU49       0.1160
     87  CD        25.9770   30.2050   23.3180 C.2    49  GLU49       0.3649
     88  OE1       25.5690   29.9270   24.4760 O.co2  49  GLU49      -0.2457
     89  OE2       26.3630   29.3380   22.4940 O.co2  49  GLU49      -0.2457
     90  N         27.1330   14.1250   27.6040 N.3    80  GLU80      -0.1245
     91  CA        25.8140   14.1760   26.9790 C.3    80  GLU80       0.1567
     92  C         25.6720   13.5310   25.6100 C.2    80  GLU80       0.2260
     93  O         26.5040   13.7130   24.7300 O.2    80  GLU80      -0.2867
     94  CB        25.3780   15.6530   26.8870 C.3    80  GLU80       0.0388
     95  CG        25.7350   16.4690   28.1270 C.3    80  GLU80       0.1160
     96  CD        25.7280   17.9770   27.9070 C.2    80  GLU80       0.3649
     97  OE1       25.8760   18.4260   26.7450 O.co2  80  GLU80      -0.2457
     98  OE2       25.6020   18.7090   28.9210 O.co2  80  GLU80      -0.2457
     99  N         20.6300   13.6930   16.9440 N.3    84  TYR84      -0.1241
    100  CA        20.2400   14.5520   15.8410 C.3    84  TYR84       0.1605
    101  C         19.8440   13.5950   14.7280 C.2    84  TYR84       0.2264
    102  O         20.3560   12.4700   14.6480 O.2    84  TYR84      -0.2867
    103  CB        21.4040   15.3970   15.3540 C.3    84  TYR84       0.0534
    104  CG        21.8100   16.5360   16.2450 C.ar   84  TYR84      -0.0201
    105  CD1       23.1410   16.7110   16.5800 C.ar   84  TYR84      -0.0009
    106  CD2       20.8970   17.4800   16.6800 C.ar   84  TYR84      -0.0009
    107  CE1       23.5590   17.7810   17.3020 C.ar   84  TYR84       0.0417
    108  CE2       21.3160   18.5750   17.4210 C.ar   84  TYR84       0.0417
    109  CZ        22.6550   18.7150   17.7180 C.ar   84  TYR84       0.1957
    110  OH        23.1440   19.8090   18.3850 O.3    84  TYR84      -0.2866
    111  N         29.0440   15.1040   23.9310 N.3    91  HIS91      -0.1241
    112  CA        29.5350   16.3630   24.4360 C.3    91  HIS91       0.1621
    113  C         30.0310   16.1770   25.8530 C.2    91  HIS91       0.2264
    114  O         29.2600   15.7750   26.7310 O.2    91  HIS91      -0.2867
    115  CB        28.3980   17.3970   24.4480 C.3    91  HIS91       0.0745
    116  CG        28.0750   17.9780   23.1060 C.ar   91  HIS91       0.0817
    117  ND1       27.0710   18.9030   22.9240 N.ar   91  HIS91      -0.2268
    118  CD2       28.6340   17.7850   21.8860 C.ar   91  HIS91       0.1154
    119  CE1       27.0250   19.2550   21.6530 C.ar   91  HIS91       0.1986
    120  NE2       27.9620   18.5920   21.0000 N.ar   91  HIS91      -0.2212
    121  N         16.7400   21.4410   27.9700 N.3   122  PHE122     -0.1241
    122  CA        17.6450   20.4030   27.4660 C.3   122  PHE122      0.1605
    123  C         17.7430   19.3620   28.6010 C.2   122  PHE122      0.2264
    124  O         17.6370   19.7100   29.7620 O.2   122  PHE122     -0.2867
    125  CB        19.0230   21.0040   27.1740 C.3   122  PHE122      0.0534
    126  CG        20.0080   20.0240   26.5760 C.ar  122  PHE122     -0.0203
    127  CD1       19.8410   19.5440   25.2800 C.ar  122  PHE122     -0.0042
    128  CD2       21.1340   19.6090   27.2980 C.ar  122  PHE122     -0.0042
    129  CE1       20.7670   18.6810   24.7150 C.ar  122  PHE122     -0.0003
    130  CE2       22.0700   18.7430   26.7310 C.ar  122  PHE122     -0.0003
    131  CZ        21.8800   18.2840   25.4380 C.ar  122  PHE122     -0.0000
@<TRIPOS>BOND
     1   102   101    2
     2   101   100    1
     3   103   100    1
     4   103   104    1
     5   100    99    1
     6   104   105   ar
     7   104   106   ar
     8    37    36    2
     9   105   107   ar
    10   106   108   ar
    11   107   109   ar
    12    36    35    1
    13   108   109   ar
    14   109   110    1
    15    38    35    1
    16    38    39    1
    17    35    34    1
    18    40    39    1
    19    40    41    1
    20    41    42    1
    21    27    26    2
    22    34    26   am
    23    80    79   ar
    24    80    78   ar
    25    79    77   ar
    26    32    30   ar
    27    32    33   ar
    28    30    29   ar
    29    78    76   ar
    30    77    76   ar
    31    26    25    1
    32    76    75    1
    33    75    72    1
    34   120   119   ar
    35   120   118   ar
    36    33    31   ar
    37    23    22    1
    38    29    31   ar
    39    29    28    1
    40    21    22    1
    41    21    20    1
    42    18    17    2
    43   119   117   ar
    44    25    28    1
    45    25    24    1
    46   118   116   ar
    47    19    20    1
    48    19    16    1
    49    72    71    1
    50    72    73    1
    51    17    24   am
    52    17    16    1
    53    71    69   am
    54    74    73    2
    55    89    87   ar
    56    86    87    1
    57    86    85    1
    58   117   116   ar
    59    82    81    1
    60    82    85    1
    61    82    83    1
    62    16    15    1
    63   116   115    1
    64    87    88   ar
    65    84    83    2
    66    68    69    1
    67    68    67    1
    68    69    70    2
    69     6     5    1
    70    15    10   am
    71   111   112    1
    72    66    65    2
    73   112   115    1
    74   112   113    1
    75   129   127   ar
    76   129   131   ar
    77    93    92    2
    78    67    65   am
    79    10    11    2
    80    10     9    1
    81    12    14    1
    82    12    13    1
    83    12     9    1
    84    65    64    1
    85     5     2    1
    86     5     7    1
    87   127   126   ar
    88   131   130   ar
    89     1     2    1
    90     2     3    1
    91    92    91    1
    92     9     8    1
    93    49    47    1
    94   113   114    2
    95    50    48    1
    96    64    63    1
    97   126   125    1
    98   126   128   ar
    99    47    48    1
   100    47    44    1
   101   130   128   ar
   102    97    96   ar
   103    94    91    1
   104    94    95    1
   105    91    90    1
   106     3     4    2
   107   125   122    1
   108    43    44    1
   109   122   121    1
   110   122   123    1
   111    54    53    2
   112    44    45    1
   113    96    95    1
   114    96    98   ar
   115    46    45    2
   116    45    51   am
   117    53    52    1
   118   123   124    2
   119    51    52    1
   120    52    55    1
   121    57    59   ar
   122    57    56   ar
   123    59    61   ar
   124    55    56    1
   125    56    58   ar
   126    61    62    1
   127    61    60   ar
   128    58    60   ar
