@<TRIPOS>MOLECULE
tmp/1jrpH01.pdb
 111 102 0 0 0
SMALL
GASTEIGER

@<TRIPOS>ATOM
      1  N        -22.6790   79.9760   43.5990 N.3   228  GLY228     -0.1225
      2  CA       -22.1270   79.8990   42.2650 C.3   228  GLY228      0.1811
      3  C        -20.8450   80.6900   42.2600 C.2   228  GLY228      0.2280
      4  O        -19.8850   80.3510   41.5600 O.2   228  GLY228     -0.2866
      5  N        -17.8380   78.4450   42.4330 N.3   231  GLU231     -0.1245
      6  CA       -17.6150   77.2990   41.5920 C.3   231  GLU231      0.1567
      7  C        -16.2540   77.3600   40.9400 C.2   231  GLU231      0.2260
      8  O        -15.7720   76.3430   40.5330 O.2   231  GLU231     -0.2867
      9  CB       -18.6800   77.1400   40.5160 C.3   231  GLU231      0.0388
     10  CG       -18.3320   76.0250   39.5600 C.3   231  GLU231      0.1160
     11  CD       -19.5190   75.4830   38.7440 C.2   231  GLU231      0.3649
     12  OE1      -19.2810   74.5390   37.9400 O.co2 231  GLU231     -0.2457
     13  OE2      -20.6750   75.9350   38.8890 O.co2 231  GLU231     -0.2457
     14  N        -17.0930   80.2810   33.0150 N.3   302  LEU302     -0.1245
     15  CA       -18.1100   79.2930   32.6760 C.3   302  LEU302      0.1561
     16  C        -19.1610   79.7800   31.6830 C.2   302  LEU302      0.2260
     17  O        -20.2640   79.2150   31.5700 O.2   302  LEU302     -0.2867
     18  CB       -18.7190   78.6240   33.9390 C.3   302  LEU302      0.0270
     19  CG       -17.8020   77.9410   35.0090 C.3   302  LEU302      0.0019
     20  CD1      -18.5370   77.4870   36.2890 C.3   302  LEU302      0.0001
     21  CD2      -17.0070   76.7590   34.4920 C.3   302  LEU302      0.0001
     22  N        -21.0730   76.9190   29.4800 N.3   305  PRO305     -0.2116
     23  CA       -22.2520   76.1950   29.9620 C.3   305  PRO305      0.1372
     24  C        -23.3280   77.2120   30.3010 C.2   305  PRO305      0.2244
     25  O        -24.4910   76.9340   30.0020 O.2   305  PRO305     -0.2868
     26  CB       -21.7750   75.5210   31.2430 C.3   305  PRO305      0.0268
     27  CG       -20.3110   75.5810   31.1450 C.3   305  PRO305      0.0207
     28  CD       -19.9650   76.8650   30.4350 C.3   305  PRO305      0.0892
     29  N        -27.1490   77.0440   29.2740 N.3   309  ARG309     -0.1245
     30  CA       -28.3170   76.7490   30.0470 C.3   309  ARG309      0.1563
     31  C        -29.4380   77.6900   29.6660 C.2   309  ARG309      0.2260
     32  O        -30.6120   77.2790   29.6400 O.2   309  ARG309     -0.2867
     33  CB       -28.0480   76.7160   31.5570 C.3   309  ARG309      0.0307
     34  CG       -29.2190   76.2510   32.3770 C.3   309  ARG309      0.0489
     35  CD       -28.8960   76.0170   33.8350 C.3   309  ARG309      0.2205
     36  NE       -28.1530   74.7780   33.9920 N.pl3 309  ARG309     -0.0865
     37  CZ       -28.7300   73.6030   34.1660 C.cat 309  ARG309      0.5346
     38  NH1      -30.0790   73.4890   34.2080 N.pl3 309  ARG309      0.1354
     39  NH2      -27.9620   72.5170   34.2370 N.pl3 309  ARG309      0.1354
     40  N        -20.6030   81.5200   37.4080 N.3   339  ALA339     -0.1245
     41  CA       -21.8530   80.9530   37.8540 C.3   339  ALA339      0.1562
     42  C        -22.5680   81.8060   38.8740 C.2   339  ALA339      0.2260
     43  O        -21.9610   82.5300   39.6490 O.2   339  ALA339     -0.2867
     44  CB       -21.5760   79.6650   38.4360 C.3   339  ALA339      0.0290
     45  N        -26.3940   80.8750   41.1170 N.3   341  ARG341     -0.1245
     46  CA       -27.6460   80.1750   41.3640 C.3   341  ARG341      0.1563
     47  C        -28.6270   80.4440   40.3000 C.2   341  ARG341      0.2260
     48  O        -29.2400   81.5400   40.3280 O.2   341  ARG341     -0.2867
     49  CB       -28.2320   80.8480   42.5720 C.3   341  ARG341      0.0307
     50  CG       -29.5870   80.3770   43.0310 C.3   341  ARG341      0.0489
     51  CD       -29.7330   80.5870   44.5780 C.3   341  ARG341      0.2205
     52  NE       -30.4830   79.5480   45.2930 N.pl3 341  ARG341     -0.0865
     53  CZ       -30.7120   79.5920   46.5920 C.cat 341  ARG341      0.5346
     54  NH1      -30.2220   80.6350   47.2750 N.pl3 341  ARG341      0.1354
     55  NH2      -31.4270   78.6300   47.1960 N.pl3 341  ARG341      0.1354
     56  N        -27.6350   79.5960   37.1260 N.3   343  PHE343     -0.1241
     57  CA       -26.7160   79.2540   36.0630 C.3   343  PHE343      0.1605
     58  C        -27.3640   79.5350   34.7200 C.2   343  PHE343      0.2264
     59  O        -27.5540   78.6040   33.9720 O.2   343  PHE343     -0.2867
     60  CB       -26.4230   77.7840   36.1330 C.3   343  PHE343      0.0534
     61  CG       -25.1090   77.3950   35.5560 C.ar  343  PHE343     -0.0203
     62  CD1      -23.9090   77.6020   36.2830 C.ar  343  PHE343     -0.0042
     63  CD2      -25.0410   76.7670   34.3510 C.ar  343  PHE343     -0.0042
     64  CE1      -22.6590   77.2390   35.7990 C.ar  343  PHE343     -0.0003
     65  CE2      -23.7880   76.3840   33.8510 C.ar  343  PHE343     -0.0003
     66  CZ       -22.5910   76.6320   34.5960 C.ar  343  PHE343     -0.0000
     67  N        -25.8550   68.5470   35.4350 N.3   442  PHE442     -0.1227
     68  CA       -24.9170   69.3950   34.7350 C.3   442  PHE442      0.1736
     69  C        -25.1950   69.2650   33.2230 C.2   442  PHE442      0.2596
     70  O        -25.5630   68.1810   32.7580 O.2   442  PHE442     -0.2718
     71  CB       -23.5030   68.9000   35.0110 C.3   442  PHE442      0.0547
     72  CG       -23.0100   69.2090   36.3760 C.ar  442  PHE442     -0.0202
     73  CD1      -23.2010   68.3350   37.4060 C.ar  442  PHE442     -0.0042
     74  CD2      -22.3270   70.3540   36.6170 C.ar  442  PHE442     -0.0042
     75  CE1      -22.7630   68.6300   38.6630 C.ar  442  PHE442     -0.0003
     76  CE2      -21.8870   70.6340   37.8630 C.ar  442  PHE442     -0.0003
     77  CZ       -22.1240   69.7730   38.8940 C.ar  442  PHE442     -0.0000
     78  N        -25.0180   70.3250   32.4300 N.am  443  THR443     -0.1953
     79  CA       -25.2520   70.1080   31.0080 C.3   443  THR443      0.1897
     80  C        -24.0170   69.5640   30.4630 C.2   443  THR443      0.2313
     81  O        -24.0250   69.0780   29.3690 O.2   443  THR443     -0.2863
     82  CB       -25.5730   71.3640   30.1950 C.3   443  THR443      0.1794
     83  OG1      -24.4710   72.2600   30.2560 O.3   443  THR443     -0.2208
     84  CG2      -26.6390   72.1410   30.8320 C.3   443  THR443      0.0378
     85  N        -20.0120   65.5460   34.2840 N.3   447  LEU447     -0.1245
     86  CA       -19.9520   65.9860   35.6610 C.3   447  LEU447      0.1561
     87  C        -20.9580   65.3360   36.5220 C.2   447  LEU447      0.2260
     88  O        -20.8520   65.4670   37.7020 O.2   447  LEU447     -0.2867
     89  CB       -20.0890   67.4780   35.8300 C.3   447  LEU447      0.0270
     90  CG       -18.9210   68.2130   35.1350 C.3   447  LEU447      0.0019
     91  CD1      -19.2100   69.6530   34.8770 C.3   447  LEU447      0.0001
     92  CD2      -17.5590   68.0330   35.7930 C.3   447  LEU447      0.0001
     93  N        -22.7710   71.8100   42.5620 N.3   511  ALA511     -0.1231
     94  CA       -23.5470   72.7940   41.8470 C.3   511  ALA511      0.1694
     95  C        -24.5710   72.1880   40.9430 C.2   511  ALA511      0.2591
     96  O        -24.6740   70.9560   40.8470 O.2   511  ALA511     -0.2718
     97  CB       -22.6680   73.4970   41.0400 C.3   511  ALA511      0.0304
     98  N        -25.3060   73.0360   40.2130 N.am  512  ALA512     -0.1980
     99  CA       -26.3740   72.5070   39.3260 C.3   512  ALA512      0.1597
    100  C        -27.3800   71.9140   40.2340 C.2   512  ALA512      0.2287
    101  O        -27.9810   70.9350   39.9310 O.2   512  ALA512     -0.2864
    102  CB       -25.8580   71.3890   38.4390 C.3   512  ALA512      0.0319
    103  N        -31.7180   75.7000   43.0740 N.3   713  GLU713     -0.1245
    104  CA       -31.7570   76.8060   42.1290 C.3   713  GLU713      0.1567
    105  C        -33.2000   77.1080   41.7170 C.2   713  GLU713      0.2260
    106  O        -33.6870   78.2290   41.8210 O.2   713  GLU713     -0.2867
    107  CB       -30.8870   76.4580   40.9170 C.3   713  GLU713      0.0388
    108  CG       -29.5490   75.8430   41.3150 C.3   713  GLU713      0.1160
    109  CD       -28.5150   75.7270   40.1870 C.2   713  GLU713      0.3649
    110  OE1      -28.5980   74.7790   39.3800 O.co2 713  GLU713     -0.2457
    111  OE2      -27.5950   76.5700   40.1270 O.co2 713  GLU713     -0.2457
@<TRIPOS>BOND
     1    29    30    1
     2    81    80    2
     3    22    23    1
     4    22    28    1
     5    32    31    2
     6    31    30    1
     7    23    24    1
     8    23    26    1
     9    25    24    2
    10    30    33    1
    11    82    83    1
    12    82    84    1
    13    82    79    1
    14    28    27    1
    15    80    79    1
    16    79    78    1
    17    27    26    1
    18    33    34    1
    19    17    16    2
    20    16    15    1
    21    34    35    1
    22    78    69   am
    23    15    14    1
    24    15    18    1
    25    70    69    2
    26    69    68    1
    27    35    36    1
    28    65    63   ar
    29    65    66   ar
    30    18    19    1
    31    59    58    2
    32    36    37    2
    33    37    38    1
    34    37    39    1
    35    85    86    1
    36    63    61   ar
    37    21    19    1
    38    66    64   ar
    39    58    57    1
    40    68    71    1
    41    68    67    1
    42    91    90    1
    43    19    20    1
    44    71    72    1
    45    90    92    1
    46    90    89    1
    47    61    60    1
    48    61    62   ar
    49    86    89    1
    50    86    87    1
    51    64    62   ar
    52    57    60    1
    53    57    56    1
    54    72    74   ar
    55    72    73   ar
    56    87    88    2
    57    74    76   ar
    58    73    75   ar
    59    40    41    1
    60    41    44    1
    61    41    42    1
    62    76    77   ar
    63    12    11   ar
    64   102    99    1
    65    75    77   ar
    66    11    13   ar
    67    11    10    1
    68    42    43    2
    69    99    98    1
    70    99   100    1
    71   110   109   ar
    72    10     9    1
    73   101   100    2
    74   111   109   ar
    75   109   108    1
    76    98    95   am
    77    47    48    2
    78    47    46    1
    79     9     6    1
    80     8     7    2
    81    96    95    2
    82   107   108    1
    83   107   104    1
    84     7     6    1
    85    95    94    1
    86    97    94    1
    87    45    46    1
    88    46    49    1
    89     4     3    2
    90     6     5    1
    91   105   106    2
    92   105   104    1
    93    94    93    1
    94   104   103    1
    95     3     2    1
    96     2     1    1
    97    49    50    1
    98    50    51    1
    99    51    52    1
   100    52    53    2
   101    53    55    1
   102    53    54    1
