@<TRIPOS>MOLECULE
tmp/1jrsA00.pdb
 136 134 0 0 0
SMALL
GASTEIGER

@<TRIPOS>ATOM
      1  N         55.5600  -14.8860   23.2100 N.3    40  HIS40      -0.1241
      2  CA        55.5640  -15.8950   22.1720 C.3    40  HIS40       0.1621
      3  C         56.9050  -16.6590   22.0930 C.2    40  HIS40       0.2264
      4  O         57.0370  -17.5650   21.2630 O.2    40  HIS40      -0.2867
      5  CB        55.2450  -15.2590   20.8130 C.3    40  HIS40       0.0745
      6  CG        56.3250  -14.4800   20.0870 C.ar   40  HIS40       0.0817
      7  ND1       56.4200  -13.1630   20.0020 N.ar   40  HIS40      -0.2268
      8  CD2       57.3540  -15.0290   19.3540 C.ar   40  HIS40       0.1154
      9  CE1       57.4620  -12.8770   19.2660 C.ar   40  HIS40       0.1986
     10  NE2       58.0070  -14.0100   18.8810 N.ar   40  HIS40      -0.2212
     11  N         48.7310  -10.8940   19.2950 N.3    81  LEU81      -0.1245
     12  CA        50.0270  -10.6150   19.8890 C.3    81  LEU81       0.1561
     13  C         49.9770   -9.4470   20.8710 C.2    81  LEU81       0.2260
     14  O         50.9850   -8.8140   21.2140 O.2    81  LEU81      -0.2867
     15  CB        51.0920  -10.3160   18.8130 C.3    81  LEU81       0.0270
     16  CG        51.8520  -11.4120   18.0540 C.3    81  LEU81       0.0019
     17  CD1       51.6490  -12.7730   18.7330 C.3    81  LEU81       0.0001
     18  CD2       51.3850  -11.4140   16.6020 C.3    81  LEU81       0.0001
     19  N         65.8510   -3.6820    9.4720 N.3   171  ASP171     -0.1225
     20  CA        64.7870   -4.1510   10.3590 C.3   171  ASP171      0.1805
     21  C         65.2240   -5.2630   11.3140 C.2   171  ASP171      0.2598
     22  O         66.3380   -5.7960   11.1840 O.2   171  ASP171     -0.2718
     23  CB        63.6270   -4.6720    9.5140 C.3   171  ASP171      0.1424
     24  CG        62.2440   -4.6890   10.1520 C.2   171  ASP171      0.3668
     25  OD1       62.0640   -4.2590   11.2930 O.co2 171  ASP171     -0.2456
     26  OD2       61.3400   -5.1690    9.4820 O.co2 171  ASP171     -0.2456
     27  N         64.4130   -5.6020   12.3190 N.am  172  SER172     -0.1938
     28  CA        64.6490   -6.8180   13.0560 C.3   172  SER172      0.2055
     29  C         63.9700   -7.9130   12.2380 C.2   172  SER172      0.2643
     30  O         63.2920   -7.6470   11.2430 O.2   172  SER172     -0.2714
     31  CB        64.0730   -6.6900   14.4720 C.3   172  SER172      0.2130
     32  OG        62.7160   -6.2800   14.5210 O.3   172  SER172     -0.2179
     33  N         64.1160   -9.1800   12.5860 N.am  173  CYS173     -0.1953
     34  CA        63.5920  -10.2660   11.7660 C.3   173  CYS173      0.1843
     35  C         63.4580  -11.5010   12.6450 C.2   173  CYS173      0.2625
     36  O         63.7430  -11.4390   13.8550 O.2   173  CYS173     -0.2714
     37  CB        64.5730  -10.5130   10.6210 C.3   173  CYS173      0.0997
     38  SG        63.8660  -11.4390    9.2280 S.3   173  CYS173     -0.0797
     39  N         63.0640  -12.6440   12.0810 N.am  174  GLN174     -0.1963
     40  CA        62.9870  -13.8780   12.8430 C.3   174  GLN174      0.1733
     41  C         64.2780  -14.2190   13.5940 C.2   174  GLN174      0.2616
     42  O         65.3640  -14.0790   13.0370 O.2   174  GLN174     -0.2715
     43  CB        62.6360  -14.9980   11.9060 C.3   174  GLN174      0.0408
     44  CG        61.1290  -15.0290   11.6760 C.3   174  GLN174      0.0908
     45  CD        60.5840  -13.9010   10.8160 C.2   174  GLN174      0.2608
     46  OE1       61.2390  -13.4920    9.8610 O.2   174  GLN174     -0.2717
     47  NE2       59.4080  -13.3710   11.1080 N.am  174  GLN174     -0.0878
     48  N         64.2130  -14.6030   14.8730 N.am  175  GLY175     -0.1955
     49  CA        65.3800  -14.9110   15.6830 C.3   175  GLY175      0.1869
     50  C         65.7630  -13.7580   16.6130 C.2   175  GLY175      0.2309
     51  O         66.5000  -13.9360   17.5920 O.2   175  GLY175     -0.2863
     52  N         63.3280  -11.8750   17.9390 N.3   177  SER177     -0.1217
     53  CA        62.1880  -11.8430   18.8390 C.3   177  SER177      0.1889
     54  C         62.5130  -11.9510   20.3130 C.2   177  SER177      0.2288
     55  O         63.3740  -12.7370   20.6870 O.2   177  SER177     -0.2866
     56  CB        61.2520  -12.9570   18.4290 C.3   177  SER177      0.2089
     57  OG        60.3500  -12.5150   17.4020 O.3   177  SER177     -0.2183
     58  N         61.2400   -6.9700   20.7220 N.3   191  VAL191     -0.1231
     59  CA        60.9960   -7.3930   19.3320 C.3   191  VAL191      0.1692
     60  C         59.8010   -8.3800   19.2920 C.2   191  VAL191      0.2593
     61  O         59.8340   -9.4460   19.9250 O.2   191  VAL191     -0.2718
     62  CB        62.2880   -8.0550   18.7440 C.3   191  VAL191      0.0266
     63  CG1       62.0850   -8.3590   17.2700 C.3   191  VAL191      0.0020
     64  CG2       63.4880   -7.1320   18.9030 C.3   191  VAL191      0.0020
     65  N         58.7200   -8.0330   18.5920 N.am  192  SER192     -0.1938
     66  CA        57.5270   -8.8460   18.6180 C.3   192  SER192      0.2055
     67  C         57.1460   -9.3860   17.2410 C.2   192  SER192      0.2643
     68  O         57.2650  -10.6170   17.0290 O.2   192  SER192     -0.2714
     69  CB        56.4300   -7.9900   19.2430 C.3   192  SER192      0.2130
     70  OG        55.2340   -8.7160   19.4260 O.3   192  SER192     -0.2179
     71  N         56.7600   -8.5540   16.2590 N.am  193  TRP193     -0.1959
     72  CA        56.2480   -9.0600   14.9960 C.3   193  TRP193      0.1771
     73  C         56.4190   -8.0410   13.8770 C.2   193  TRP193      0.2620
     74  O         56.8480   -6.9080   14.0960 O.2   193  TRP193     -0.2715
     75  CB        54.7450   -9.4350   15.1460 C.3   193  TRP193      0.0590
     76  CG        53.7200   -8.3260   15.4300 C.ar  193  TRP193      0.0006
     77  CD1       53.4480   -7.8930   16.7040 C.ar  193  TRP193      0.0946
     78  CD2       52.9320   -7.6850   14.5020 C.ar  193  TRP193      0.0152
     79  NE1       52.4920   -6.9930   16.5940 N.ar  193  TRP193     -0.2442
     80  CE2       52.1560   -6.8360   15.3090 C.ar  193  TRP193      0.0810
     81  CE3       52.7570   -7.6970   13.1180 C.ar  193  TRP193      0.0012
     82  CZ2       51.1970   -5.9890   14.7550 C.ar  193  TRP193      0.0191
     83  CZ3       51.7970   -6.8480   12.5520 C.ar  193  TRP193      0.0001
     84  CH2       51.0280   -6.0050   13.3650 C.ar  193  TRP193      0.0015
     85  N         56.1170   -8.3960   12.6510 N.am  194  GLY194     -0.1940
     86  CA        56.1200   -7.4580   11.5600 C.3   194  GLY194      0.2014
     87  C         55.7280   -8.2720   10.3670 C.2   194  GLY194      0.2640
     88  O         55.6010   -9.4940   10.4880 O.2   194  GLY194     -0.2714
     89  N         55.5060   -7.6360    9.2350 N.am  195  SER195     -0.1935
     90  CA        55.1800   -8.3380    8.0090 C.3   195  SER195      0.2055
     91  C         56.4380   -8.4960    7.1600 C.2   195  SER195      0.2644
     92  O         56.9610   -7.5330    6.5700 O.2   195  SER195     -0.2714
     93  CB        54.1250   -7.5290    7.3260 C.3   195  SER195      0.2130
     94  OG        53.7770   -8.1080    6.0890 O.3   195  SER195     -0.2179
     95  N         56.9500   -9.7290    7.1050 N.am  196  GLY196     -0.1939
     96  CA        58.2290  -10.0000    6.4650 C.3   196  GLY196      0.2014
     97  C         59.3410   -9.3450    7.2940 C.2   196  GLY196      0.2639
     98  O         59.1700   -9.1030    8.5030 O.2   196  GLY196     -0.2714
     99  N         60.4670   -9.0090    6.6710 N.am  197  CYS197     -0.1967
    100  CA        61.5430   -8.2780    7.3390 C.3   197  CYS197      0.1712
    101  C         62.1410   -7.3090    6.3400 C.2   197  CYS197      0.2296
    102  O         62.4180   -7.6450    5.1890 O.2   197  CYS197     -0.2864
    103  CB        62.6570   -9.1900    7.8010 C.3   197  CYS197      0.0983
    104  SG        62.0760  -10.5630    8.8340 S.3   197  CYS197     -0.0798
    105  N         56.5510   -1.6320    5.9070 N.3   202  LYS202     -0.1245
    106  CA        56.1380   -2.6500    6.8370 C.3   202  LYS202      0.1561
    107  C         57.2140   -2.6550    7.9350 C.2   202  LYS202      0.2260
    108  O         58.1090   -3.5280    8.0200 O.2   202  LYS202     -0.2867
    109  CB        56.0640   -4.0030    6.1090 C.3   202  LYS202      0.0271
    110  CG        54.9840   -4.1070    5.0400 C.3   202  LYS202      0.0035
    111  CD        53.6560   -4.0820    5.7860 C.3   202  LYS202      0.0206
    112  CE        52.4180   -3.6400    4.9710 C.3   202  LYS202      0.1093
    113  NZ        52.2370   -2.1820    4.9410 N.3   202  LYS202     -0.1314
    114  N         58.9380   -2.8490   11.8160 N.3   204  GLY204     -0.1210
    115  CA        58.7790   -3.7930   12.9030 C.3   204  GLY204      0.1956
    116  C         57.8490   -3.2450   13.9640 C.2   204  GLY204      0.2612
    117  O         57.7630   -2.0340   14.1710 O.2   204  GLY204     -0.2717
    118  N         57.1640   -4.1490   14.6660 N.am  205  VAL205     -0.1965
    119  CA        56.2530   -3.8020   15.7430 C.3   205  VAL205      0.1727
    120  C         56.8310   -4.4170   17.0080 C.2   205  VAL205      0.2616
    121  O         57.3360   -5.5520   17.0370 O.2   205  VAL205     -0.2715
    122  CB        54.8410   -4.3500   15.4570 C.3   205  VAL205      0.0290
    123  CG1       53.8640   -3.8060   16.4910 C.3   205  VAL205      0.0023
    124  CG2       54.3930   -3.9340   14.0610 C.3   205  VAL205      0.0023
    125  N         56.7460   -3.6180   18.0650 N.am  206  TYR206     -0.1974
    126  CA        57.4150   -3.8720   19.3210 C.3   206  TYR206      0.1639
    127  C         56.4580   -3.6940   20.4630 C.2   206  TYR206      0.2290
    128  O         55.5860   -2.8150   20.4150 O.2   206  TYR206     -0.2864
    129  CB        58.6060   -2.8840   19.4760 C.3   206  TYR206      0.0560
    130  CG        59.5940   -3.0200   18.3170 C.ar  206  TYR206     -0.0198
    131  CD1       60.6120   -3.9800   18.4130 C.ar  206  TYR206     -0.0009
    132  CD2       59.4640   -2.2660   17.1430 C.ar  206  TYR206     -0.0009
    133  CE1       61.4810   -4.1990   17.3510 C.ar  206  TYR206      0.0417
    134  CE2       60.3420   -2.4850   16.0770 C.ar  206  TYR206      0.0417
    135  CZ        61.3350   -3.4520   16.2000 C.ar  206  TYR206      0.1957
    136  OH        62.1840   -3.7160   15.1650 O.3   206  TYR206     -0.2866
@<TRIPOS>BOND
     1   113   112    1
     2   112   111    1
     3   110   111    1
     4   110   109    1
     5   102   101    2
     6   105   106    1
     7    94    93    1
     8   109   106    1
     9   101   100    1
    10    96    95    1
    11    96    97    1
    12    92    91    2
    13    99    97   am
    14    99   100    1
    15   106   107    1
    16    95    91   am
    17    91    90    1
    18    97    98    2
    19    93    90    1
    20   100   103    1
    21   103   104    1
    22   107   108    2
    23    90    89    1
    24   104    38    1
    25    38    37    1
    26    89    87   am
    27    19    20    1
    28    26    24   ar
    29    23    24    1
    30    23    20    1
    31    46    45    2
    32    24    25   ar
    33    20    21    1
    34    87    88    2
    35    87    86    1
    36    37    34    1
    37    45    47   am
    38    45    44    1
    39    22    21    2
    40    30    29    2
    41    21    27   am
    42    86    85    1
    43    44    43    1
    44    34    33    1
    45    34    35    1
    46   114   115    1
    47    43    40    1
    48    39    35   am
    49    39    40    1
    50    29    33   am
    51    29    28    1
    52    27    28    1
    53    83    81   ar
    54    83    84   ar
    55    35    36    2
    56    85    73   am
    57    40    41    1
    58   115   116    1
    59    42    41    2
    60    28    31    1
    61    81    78   ar
    62    84    82   ar
    63    41    48   am
    64    73    74    2
    65    73    72    1
    66   116   117    2
    67   116   118   am
    68   124   122    1
    69    31    32    1
    70    78    80   ar
    71    78    76   ar
    72   118   119    1
    73    82    80   ar
    74    48    49    1
    75    72    75    1
    76    72    71    1
    77    75    76    1
    78   136   135    1
    79    80    79   ar
    80    76    77   ar
    81   122   119    1
    82   122   123    1
    83    49    50    1
    84   119   120    1
    85   134   135   ar
    86   134   132   ar
    87   135   133   ar
    88    71    67   am
    89    79    77   ar
    90    18    16    1
    91    50    51    2
    92   120   121    2
    93   120   125   am
    94    68    67    2
    95   132   130   ar
    96    67    66    1
    97    63    62    1
    98   133   131   ar
    99    57    56    1
   100    52    53    1
   101    16    17    1
   102    16    15    1
   103   125   126    1
   104   130   131   ar
   105   130   129    1
   106    56    53    1
   107    65    66    1
   108    65    60   am
   109    66    69    1
   110    62    64    1
   111    62    59    1
   112    15    12    1
   113    53    54    1
   114    10     9   ar
   115    10     8   ar
   116    69    70    1
   117     9     7   ar
   118    60    59    1
   119    60    61    2
   120    11    12    1
   121   126   129    1
   122   126   127    1
   123    59    58    1
   124     8     6   ar
   125    12    13    1
   126     7     6   ar
   127     6     5    1
   128    54    55    2
   129   128   127    2
   130     5     2    1
   131    13    14    2
   132     4     3    2
   133     3     2    1
   134     2     1    1
