@<TRIPOS>MOLECULE
tmp/1jrtA00.pdb
 116 114 0 0 0
SMALL
GASTEIGER

@<TRIPOS>ATOM
      1  N         38.8190   19.4100   46.6070 N.3    40  HIS40      -0.1241
      2  CA        40.2400   19.6190   46.3060 C.3    40  HIS40       0.1621
      3  C         40.8880   20.5300   47.3350 C.2    40  HIS40       0.2264
      4  O         42.0950   20.7270   47.2870 O.2    40  HIS40      -0.2867
      5  CB        40.4440   20.2130   44.8860 C.3    40  HIS40       0.0745
      6  CG        40.1520   21.6920   44.6710 C.ar   40  HIS40       0.0817
      7  ND1       39.0520   22.2370   44.1620 N.ar   40  HIS40      -0.2268
      8  CD2       41.0380   22.7120   44.9290 C.ar   40  HIS40       0.1154
      9  CE1       39.2270   23.5310   44.1060 C.ar   40  HIS40       0.1986
     10  NE2       40.4320   23.8010   44.5740 N.ar   40  HIS40      -0.2212
     11  N         36.1030   37.6000   37.5620 N.3   171  ASP171     -0.1225
     12  CA        36.1080   36.1460   37.7690 C.3   171  ASP171      0.1805
     13  C         36.5810   35.8170   39.1900 C.2   171  ASP171      0.2598
     14  O         37.0530   36.6970   39.9410 O.2   171  ASP171     -0.2718
     15  CB        37.0710   35.4860   36.7700 C.3   171  ASP171      0.1424
     16  CG        36.9390   33.9930   36.5260 C.2   171  ASP171      0.3668
     17  OD1       36.0250   33.3510   37.0380 O.co2 171  ASP171     -0.2456
     18  OD2       37.7800   33.4710   35.8180 O.co2 171  ASP171     -0.2456
     19  N         36.4250   34.5520   39.5800 N.am  172  SER172     -0.1938
     20  CA        37.0470   34.0770   40.7860 C.3   172  SER172      0.2055
     21  C         38.4540   33.6210   40.3850 C.2   172  SER172      0.2643
     22  O         38.8230   33.6990   39.2070 O.2   172  SER172     -0.2714
     23  CB        36.1830   32.9540   41.3490 C.3   172  SER172      0.2130
     24  OG        36.0300   31.8590   40.4840 O.3   172  SER172     -0.2179
     25  N         39.3120   33.1950   41.3040 N.am  173  CYS173     -0.1953
     26  CA        40.6970   32.8860   40.9750 C.3   173  CYS173      0.1843
     27  C         41.2660   32.0090   42.0800 C.2   173  CYS173      0.2625
     28  O         40.5540   31.5700   42.9840 O.2   173  CYS173     -0.2714
     29  CB        41.5020   34.1990   40.8390 C.3   173  CYS173      0.0997
     30  SG        43.1060   34.0280   39.9910 S.3   173  CYS173     -0.0797
     31  N         42.5540   31.7180   42.0550 N.am  174  GLN174     -0.1963
     32  CA        43.2100   30.9290   43.0850 C.3   174  GLN174      0.1733
     33  C         43.0510   31.6330   44.4220 C.2   174  GLN174      0.2616
     34  O         43.0820   32.8600   44.5110 O.2   174  GLN174     -0.2715
     35  CB        44.7120   30.7680   42.7350 C.3   174  GLN174      0.0408
     36  CG        44.9830   29.6330   41.7550 C.3   174  GLN174      0.0908
     37  CD        44.4740   29.9140   40.3630 C.2   174  GLN174      0.2608
     38  OE1       44.7710   30.9820   39.8180 O.2   174  GLN174     -0.2717
     39  NE2       43.7020   29.0240   39.7670 N.am  174  GLN174     -0.0878
     40  N         42.7980   30.8490   45.4520 N.am  175  GLY175     -0.1955
     41  CA        42.6080   31.3890   46.7790 C.3   175  GLY175      0.1869
     42  C         41.1290   31.5640   47.0810 C.2   175  GLY175      0.2309
     43  O         40.7490   31.7900   48.2410 O.2   175  GLY175     -0.2863
     44  N         38.8510   29.1560   46.0430 N.3   177  SER177     -0.1217
     45  CA        38.2590   27.8210   45.9460 C.3   177  SER177      0.1889
     46  C         37.5930   27.3780   47.2190 C.2   177  SER177      0.2288
     47  O         38.0840   27.6980   48.3020 O.2   177  SER177     -0.2866
     48  CB        39.3140   26.7850   45.5800 C.3   177  SER177      0.2089
     49  OG        39.6430   26.6990   44.1720 O.3   177  SER177     -0.2183
     50  N         33.2380   27.5260   44.3570 N.3   191  VAL191     -0.1231
     51  CA        34.3390   27.8610   43.4680 C.3   191  VAL191      0.1692
     52  C         35.2210   26.6290   43.2740 C.2   191  VAL191      0.2593
     53  O         35.7690   26.0900   44.2420 O.2   191  VAL191     -0.2718
     54  CB        35.1670   29.0430   44.0700 C.3   191  VAL191      0.0266
     55  CG1       36.3140   29.4100   43.1120 C.3   191  VAL191      0.0020
     56  CG2       34.2480   30.2420   44.3290 C.3   191  VAL191      0.0020
     57  N         35.3800   26.1650   42.0390 N.am  192  SER192     -0.1938
     58  CA        36.1500   24.9560   41.8110 C.3   192  SER192      0.2055
     59  C         37.3430   25.1550   40.8850 C.2   192  SER192      0.2643
     60  O         38.4940   25.0860   41.3420 O.2   192  SER192     -0.2714
     61  CB        35.1600   23.9040   41.2850 C.3   192  SER192      0.2130
     62  OG        35.7340   22.6240   41.0610 O.3   192  SER192     -0.2179
     63  N         37.1850   25.4250   39.5930 N.am  193  TRP193     -0.1959
     64  CA        38.3370   25.4640   38.7100 C.3   193  TRP193      0.1771
     65  C         38.0620   26.4070   37.5450 C.2   193  TRP193      0.2620
     66  O         36.9730   27.0060   37.4110 O.2   193  TRP193     -0.2715
     67  CB        38.6420   24.0320   38.2120 C.3   193  TRP193      0.0590
     68  CG        37.5800   23.3370   37.3300 C.ar  193  TRP193      0.0006
     69  CD1       36.5700   22.5890   37.8880 C.ar  193  TRP193      0.0946
     70  CD2       37.5500   23.3240   35.9350 C.ar  193  TRP193      0.0152
     71  NE1       35.9130   22.0920   36.8590 N.ar  193  TRP193     -0.2442
     72  CE2       36.4590   22.4970   35.6820 C.ar  193  TRP193      0.0810
     73  CE3       38.2710   23.8640   34.8630 C.ar  193  TRP193      0.0012
     74  CZ2       36.0840   22.2020   34.3590 C.ar  193  TRP193      0.0191
     75  CZ3       37.9080   23.5770   33.5450 C.ar  193  TRP193      0.0001
     76  CH2       36.8170   22.7480   33.3040 C.ar  193  TRP193      0.0015
     77  N         39.0750   26.6200   36.7100 N.am  194  GLY194     -0.1940
     78  CA        38.8920   27.4120   35.4880 C.3   194  GLY194      0.2014
     79  C         40.1750   27.4770   34.6840 C.2   194  GLY194      0.2640
     80  O         41.1550   26.8500   35.0900 O.2   194  GLY194     -0.2714
     81  N         40.2430   28.1550   33.5460 N.am  195  SER195     -0.1935
     82  CA        41.5330   28.2300   32.9040 C.3   195  SER195      0.2055
     83  C         42.0720   29.6360   33.1170 C.2   195  SER195      0.2644
     84  O         41.4970   30.6040   32.5980 O.2   195  SER195     -0.2714
     85  CB        41.3780   27.8900   31.4230 C.3   195  SER195      0.2130
     86  OG        42.7000   27.5470   31.0340 O.3   195  SER195     -0.2179
     87  N         43.1510   29.7700   33.8970 N.am  196  GLY196     -0.1939
     88  CA        43.6630   31.0690   34.3230 C.3   196  GLY196      0.2014
     89  C         42.5710   31.8090   35.1090 C.2   196  GLY196      0.2639
     90  O         41.6920   31.1350   35.6690 O.2   196  GLY196     -0.2714
     91  N         42.5350   33.1440   35.1610 N.am  197  CYS197     -0.1967
     92  CA        41.4610   33.8300   35.8520 C.3   197  CYS197      0.1712
     93  C         41.1470   35.0510   35.0520 C.2   197  CYS197      0.2296
     94  O         42.0380   35.8210   34.7060 O.2   197  CYS197     -0.2864
     95  CB        41.8340   34.3400   37.2630 C.3   197  CYS197      0.0983
     96  SG        42.5860   33.0660   38.3060 S.3   197  CYS197     -0.0798
     97  N         37.0830   32.1100   28.9900 N.3   202  LYS202     -0.1245
     98  CA        37.4350   31.0950   29.9760 C.3   202  LYS202      0.1561
     99  C         36.7550   31.4090   31.3260 C.2   202  LYS202      0.2260
    100  O         37.4160   31.8730   32.2750 O.2   202  LYS202     -0.2867
    101  CB        38.9490   31.0560   30.1320 C.3   202  LYS202      0.0271
    102  CG        39.6680   30.5470   28.8870 C.3   202  LYS202      0.0035
    103  CD        39.4120   29.0510   28.7100 C.3   202  LYS202      0.0206
    104  CE        39.4910   28.5450   27.2670 C.3   202  LYS202      0.1093
    105  NZ        38.2920   28.9450   26.5340 N.3   202  LYS202     -0.1314
    106  N         34.6580   30.9740   35.0730 N.3   204  GLY204     -0.1210
    107  CA        34.8770   30.0860   36.2120 C.3   204  GLY204      0.1956
    108  C         33.9030   28.9110   36.1820 C.2   204  GLY204      0.2611
    109  O         32.7620   29.0950   35.7570 O.2   204  GLY204     -0.2717
    110  N         34.3270   27.7150   36.5890 N.am  205  VAL205     -0.1979
    111  CA        33.4810   26.5290   36.6700 C.3   205  VAL205      0.1595
    112  C         33.2500   26.2550   38.1630 C.2   205  VAL205      0.2287
    113  O         34.1820   26.3230   38.9740 O.2   205  VAL205     -0.2864
    114  CB        34.1890   25.3650   36.0060 C.3   205  VAL205      0.0276
    115  CG1       33.2840   24.1370   35.9320 C.3   205  VAL205      0.0022
    116  CG2       34.6240   25.8350   34.6200 C.3   205  VAL205      0.0022
@<TRIPOS>BOND
     1   105   104    1
     2   104   103    1
     3   103   102    1
     4   102   101    1
     5    97    98    1
     6    98   101    1
     7    98    99    1
     8    86    85    1
     9    99   100    2
    10    85    82    1
    11    84    83    2
    12    82    83    1
    13    82    81    1
    14    83    87   am
    15    76    75   ar
    16    76    74   ar
    17    75    73   ar
    18    81    79   am
    19    87    88    1
    20    88    89    1
    21    74    72   ar
    22   116   114    1
    23    79    80    2
    24    79    78    1
    25    94    93    2
    26    73    70   ar
    27    93    92    1
    28   106   107    1
    29    89    91   am
    30    89    90    2
    31    91    92    1
    32    78    77    1
    33    72    70   ar
    34    72    71   ar
    35   109   108    2
    36    18    16   ar
    37    92    95    1
    38   115   114    1
    39    70    68   ar
    40   114   111    1
    41   108   107    1
    42   108   110   am
    43    16    15    1
    44    16    17   ar
    45   110   111    1
    46   111   112    1
    47    77    65   am
    48    15    12    1
    49    71    69   ar
    50    95    96    1
    51    68    69   ar
    52    68    67    1
    53    66    65    2
    54    65    64    1
    55    11    12    1
    56    12    13    1
    57   112   113    2
    58    67    64    1
    59    96    30    1
    60    64    63    1
    61    13    19   am
    62    13    14    2
    63    22    21    2
    64    19    20    1
    65    63    59   am
    66    39    37   am
    67    38    37    2
    68    30    29    1
    69    37    36    1
    70    21    20    1
    71    21    25   am
    72    24    23    1
    73    20    23    1
    74    29    26    1
    75    59    60    2
    76    59    58    1
    77    26    25    1
    78    26    27    1
    79    62    61    1
    80    61    58    1
    81    36    35    1
    82    58    57    1
    83    57    52   am
    84    31    27   am
    85    31    32    1
    86    27    28    2
    87    35    32    1
    88    32    33    1
    89    55    54    1
    90    52    51    1
    91    52    53    2
    92    51    54    1
    93    51    50    1
    94    54    56    1
    95     9     7   ar
    96     9    10   ar
    97     7     6   ar
    98    49    48    1
    99    33    34    2
   100    33    40   am
   101    10     8   ar
   102     6     5    1
   103     6     8   ar
   104     5     2    1
   105    40    41    1
   106    48    45    1
   107    45    44    1
   108    45    46    1
   109     2     1    1
   110     2     3    1
   111    41    42    1
   112    42    43    2
   113    46    47    2
   114     4     3    2
