@<TRIPOS>MOLECULE
tmp/1jrxB01.pdb
 151 146 0 0 0
SMALL
GASTEIGER

@<TRIPOS>ATOM
      1  N         13.3970   26.9940   52.6290 N.3     4  LEU4       -0.1245
      2  CA        13.4960   26.7650   54.0680 C.3     4  LEU4        0.1561
      3  C         14.9100   27.0820   54.5770 C.2     4  LEU4        0.2260
      4  O         15.0610   27.5880   55.6970 O.2     4  LEU4       -0.2867
      5  CB        13.0330   25.3600   54.3650 C.3     4  LEU4        0.0270
      6  CG        12.9280   25.0060   55.8710 C.3     4  LEU4        0.0019
      7  CD1       11.8040   25.8600   56.4670 C.3     4  LEU4        0.0001
      8  CD2       12.6580   23.5200   55.9930 C.3     4  LEU4        0.0001
      9  N         15.5160   30.8620   54.9000 N.3     7  PHE7       -0.1227
     10  CA        14.7440   31.2570   56.0400 C.3     7  PHE7        0.1736
     11  C         15.5140   30.9950   57.3410 C.2     7  PHE7        0.2595
     12  O         15.5730   31.9330   58.1170 O.2     7  PHE7       -0.2718
     13  CB        13.3920   30.5180   56.1430 C.3     7  PHE7        0.0547
     14  CG        12.6020   30.9890   57.3470 C.ar    7  PHE7       -0.0202
     15  CD1       12.7090   30.3170   58.5520 C.ar    7  PHE7       -0.0042
     16  CD2       11.7760   32.1040   57.2510 C.ar    7  PHE7       -0.0042
     17  CE1       12.0090   30.7390   59.6630 C.ar    7  PHE7       -0.0003
     18  CE2       11.0800   32.5200   58.3560 C.ar    7  PHE7       -0.0003
     19  CZ        11.1780   31.8550   59.5730 C.ar    7  PHE7       -0.0000
     20  N         16.0540   29.8020   57.5620 N.am    8  HIS8       -0.1975
     21  CA        16.7650   29.5390   58.7950 C.3     8  HIS8        0.1656
     22  C         18.0870   30.2720   58.9570 C.2     8  HIS8        0.2291
     23  O         18.4220   30.6340   60.0970 O.2     8  HIS8       -0.2864
     24  CB        17.1020   28.0460   59.0080 C.3     8  HIS8        0.0771
     25  CG        15.8830   27.2240   59.3460 C.ar    8  HIS8        0.0820
     26  ND1       15.0030   26.7620   58.3890 N.ar    8  HIS8       -0.2267
     27  CD2       15.4380   26.7780   60.5550 C.ar    8  HIS8        0.1154
     28  CE1       14.0480   26.0480   58.9680 C.ar    8  HIS8        0.1986
     29  NE2       14.3150   26.0880   60.2450 N.ar    8  HIS8       -0.2212
     30  N         18.9110   33.3360   61.0890 N.3    11  ASN11      -0.1225
     31  CA        19.1050   33.3350   62.5260 C.3    11  ASN11       0.1785
     32  C         19.9370   32.2110   63.0840 C.2    11  ASN11       0.2597
     33  O         19.9640   31.9600   64.2910 O.2    11  ASN11      -0.2718
     34  CB        17.7040   33.3700   63.1800 C.3    11  ASN11       0.1169
     35  CG        16.9600   34.6460   62.8630 C.2    11  ASN11       0.2627
     36  OD1       15.9730   34.6430   62.1170 O.2    11  ASN11      -0.2716
     37  ND2       17.4380   35.7810   63.3570 N.am   11  ASN11      -0.0877
     38  N         20.5660   31.4310   62.2200 N.am   12  GLN12      -0.1979
     39  CA        21.3020   30.2520   62.6660 C.3    12  GLN12       0.1601
     40  C         22.2790   29.9690   61.5330 C.2    12  GLN12       0.2287
     41  O         22.0700   30.4500   60.4090 O.2    12  GLN12      -0.2864
     42  CB        20.3810   29.0740   62.9980 C.3    12  GLN12       0.0394
     43  CG        19.6280   28.4840   61.8160 C.3    12  GLN12       0.0908
     44  CD        18.5180   27.5450   62.2150 C.2    12  GLN12       0.2608
     45  OE1       17.4920   27.9250   62.7340 O.2    12  GLN12      -0.2717
     46  NE2       18.6610   26.2590   61.9520 N.am   12  GLN12      -0.0878
     47  N         23.9360   24.4870   62.0910 N.3    16  SER16      -0.1202
     48  CA        22.8260   24.2280   62.9800 C.3    16  SER16       0.2020
     49  C         22.0270   23.0390   62.3590 C.2    16  SER16       0.2619
     50  O         21.2890   22.3360   63.0140 O.2    16  SER16      -0.2717
     51  CB        21.9020   25.4340   63.0230 C.3    16  SER16       0.2103
     52  OG        21.5240   25.7110   61.6630 O.3    16  SER16      -0.2182
     53  N         22.1940   22.8440   61.0360 N.am   17  CYS17      -0.1969
     54  CA        21.5740   21.7010   60.3770 C.3    17  CYS17       0.1712
     55  C         22.5540   20.6830   59.8330 C.2    17  CYS17       0.2296
     56  O         22.2300   19.5270   59.5760 O.2    17  CYS17      -0.2864
     57  CB        20.8520   22.1910   59.1020 C.3    17  CYS17       0.0983
     58  SG        19.3520   23.0420   59.6440 S.3    17  CYS17      -0.0798
     59  N         20.8030   15.3150   59.5700 N.3    32  GLU32      -0.1245
     60  CA        20.0970   16.5610   59.2690 C.3    32  GLU32       0.1567
     61  C         18.7090   16.5410   59.8610 C.2    32  GLU32       0.2260
     62  O         18.2630   17.4680   60.5380 O.2    32  GLU32      -0.2867
     63  CB        20.1000   16.7630   57.7550 C.3    32  GLU32       0.0388
     64  CG        21.4770   16.9320   57.1490 C.3    32  GLU32       0.1160
     65  CD        22.2500   15.6510   57.0030 C.2    32  GLU32       0.3649
     66  OE1       23.4820   15.6450   56.7650 O.co2  32  GLU32      -0.2457
     67  OE2       21.6890   14.5390   57.0850 O.co2  32  GLU32      -0.2457
     68  N         18.8000   17.1980   63.4990 N.3    35  GLN35      -0.1231
     69  CA        18.8440   18.6330   63.7970 C.3    35  GLN35       0.1698
     70  C         17.4900   19.2840   63.7540 C.2    35  GLN35       0.2592
     71  O         17.1620   20.1150   64.6320 O.2    35  GLN35      -0.2718
     72  CB        19.8380   19.2910   62.8530 C.3    35  GLN35       0.0381
     73  CG        21.2430   18.7250   62.9590 C.3    35  GLN35       0.0905
     74  CD        21.6100   18.0800   64.2730 C.2    35  GLN35       0.2608
     75  OE1       22.0010   16.9020   64.4000 O.2    35  GLN35      -0.2717
     76  NE2       21.4510   18.8250   65.3280 N.am   35  GLN35      -0.0878
     77  N         16.6470   18.9500   62.7360 N.am   36  CYS36      -0.1970
     78  CA        15.3220   19.5730   62.7150 C.3    36  CYS36       0.1712
     79  C         14.5820   19.1610   64.0180 C.2    36  CYS36       0.2296
     80  O         13.9510   20.0100   64.6420 O.2    36  CYS36      -0.2864
     81  CB        14.3370   19.1470   61.6140 C.3    36  CYS36       0.0983
     82  SG        15.1120   18.8410   60.0160 S.3    36  CYS36      -0.0798
     83  N         15.9180   18.3190   66.8600 N.3    38  SER38      -0.1202
     84  CA        16.5240   19.0210   68.0120 C.3    38  SER38       0.2020
     85  C         15.7970   20.3320   68.2990 C.2    38  SER38       0.2619
     86  O         15.4040   20.5480   69.4530 O.2    38  SER38      -0.2717
     87  CB        17.9940   19.2370   67.8110 C.3    38  SER38       0.2103
     88  OG        18.1870   20.3880   66.9760 O.3    38  SER38      -0.2182
     89  N         15.4950   21.1460   67.2840 N.am   39  CYS39      -0.1955
     90  CA        14.7970   22.3820   67.4990 C.3    39  CYS39       0.1843
     91  C         13.3030   22.3950   67.4910 C.2    39  CYS39       0.2625
     92  O         12.7290   23.2040   68.2010 O.2    39  CYS39      -0.2714
     93  CB        15.2670   23.3100   66.3490 C.3    39  CYS39       0.0997
     94  SG        17.0270   23.5720   66.7350 S.3    39  CYS39      -0.0797
     95  N         12.7060   21.5450   66.6550 N.am   40  HIS40      -0.1973
     96  CA        11.2410   21.5910   66.5620 C.3    40  HIS40       0.1656
     97  C         10.6210   20.4690   67.3680 C.2    40  HIS40       0.2291
     98  O          9.4470   20.4630   67.5290 O.2    40  HIS40      -0.2864
     99  CB        10.9080   21.3980   65.0820 C.3    40  HIS40       0.0771
    100  CG        11.2230   22.6100   64.2600 C.ar   40  HIS40       0.0820
    101  ND1       10.4240   23.7160   64.2630 N.ar   40  HIS40      -0.2267
    102  CD2       12.2890   22.8960   63.4340 C.ar   40  HIS40       0.1154
    103  CE1       10.9210   24.6530   63.4790 C.ar   40  HIS40       0.1986
    104  NE2       12.0620   24.1510   62.9690 N.ar   40  HIS40      -0.2212
    105  N         11.4120   14.5930   58.5210 N.3    68  CYS68      -0.1221
    106  CA        10.9500   15.9130   58.1760 C.3    68  CYS68       0.1808
    107  C         11.3020   16.2230   56.7330 C.2    68  CYS68       0.2601
    108  O         10.4990   16.8890   56.0920 O.2    68  CYS68      -0.2717
    109  CB        11.6360   17.0690   58.9850 C.3    68  CYS68       0.0970
    110  SG        11.9050   16.4760   60.7000 S.3    68  CYS68      -0.0800
    111  N         12.4830   15.7520   56.3090 N.am   69  THR69      -0.1953
    112  CA        12.9000   16.0900   54.9220 C.3    69  THR69       0.1897
    113  C         12.1270   15.3130   53.8650 C.2    69  THR69       0.2313
    114  O         12.2780   15.4930   52.6260 O.2    69  THR69      -0.2863
    115  CB        14.4070   15.9170   54.7350 C.3    69  THR69       0.1794
    116  OG1       14.7990   14.6020   55.1210 O.3    69  THR69      -0.2208
    117  CG2       15.1670   16.8760   55.6770 C.3    69  THR69       0.0378
    118  N          9.8910   18.4130   53.8320 N.3    72  HIS72      -0.1297
    119  CA        10.5420   19.7410   53.8220 C.3    72  HIS72       0.1306
    120  C         11.9400   19.5980   53.2560 C.3    72  HIS72       0.2013
    121  O         12.7770   19.0890   54.0390 O.3    72  HIS72      -0.2188
    122  CB        10.6560   20.1970   55.2600 C.3    72  HIS72       0.0691
    123  CG         9.3680   20.4440   55.9850 C.ar   72  HIS72       0.0814
    124  ND1        8.6830   21.6060   55.8300 N.ar   72  HIS72      -0.2268
    125  CD2        8.7000   19.7010   56.9000 C.ar   72  HIS72       0.1154
    126  CE1        7.6130   21.6180   56.5940 C.ar   72  HIS72       0.1986
    127  NE2        7.6150   20.4600   57.2420 N.ar   72  HIS72      -0.2212
    128  N         15.3720   21.6440   52.3810 N.3    74  ALA74      -0.1245
    129  CA        16.0090   22.8510   52.8630 C.3    74  ALA74       0.1562
    130  C         16.2900   23.8270   51.7410 C.2    74  ALA74       0.2260
    131  O         15.7490   24.9240   51.7770 O.2    74  ALA74      -0.2867
    132  CB        17.3060   22.4000   53.5030 C.3    74  ALA74       0.0290
    133  N          5.2010   25.8090   54.3910 N.3    93  PRO93      -0.2102
    134  CA         6.1120   26.8470   53.9410 C.3    93  PRO93       0.1504
    135  C          6.9210   26.2710   52.8090 C.2    93  PRO93       0.2575
    136  O          7.3960   25.1220   52.8980 O.2    93  PRO93      -0.2718
    137  CB         7.0130   27.0570   55.1780 C.3    93  PRO93       0.0282
    138  CG         6.1650   26.6780   56.3490 C.3    93  PRO93       0.0208
    139  CD         5.3250   25.5250   55.8310 C.3    93  PRO93       0.0893
    140  N          7.1790   27.0730   51.7740 N.am   94  TYR94      -0.1977
    141  CA         8.0150   26.7390   50.6480 C.3    94  TYR94       0.1639
    142  C          7.5040   25.5010   49.9280 C.2    94  TYR94       0.2290
    143  O          8.2470   24.6570   49.5160 O.2    94  TYR94      -0.2864
    144  CB         9.5040   26.5260   51.0490 C.3    94  TYR94       0.0560
    145  CG         9.9110   27.7300   51.8820 C.ar   94  TYR94      -0.0198
    146  CD1       10.0860   28.9780   51.3350 C.ar   94  TYR94      -0.0009
    147  CD2        9.9850   27.5650   53.2710 C.ar   94  TYR94      -0.0009
    148  CE1       10.3820   30.0460   52.1590 C.ar   94  TYR94       0.0417
    149  CE2       10.2380   28.6350   54.1040 C.ar   94  TYR94       0.0417
    150  CZ        10.4430   29.8840   53.5130 C.ar   94  TYR94       0.1957
    151  OH        10.7220   30.9230   54.3670 O.3    94  TYR94      -0.2866
@<TRIPOS>BOND
     1   143   142    2
     2   142   141    1
     3   141   144    1
     4   141   140    1
     5   144   145    1
     6   146   145   ar
     7   146   148   ar
     8   130   131    2
     9   130   129    1
    10   140   135   am
    11   145   147   ar
    12   148   150   ar
    13   128   129    1
    14   114   113    2
    15     1     2    1
    16   135   136    2
    17   135   134    1
    18   129   132    1
    19   120   119    1
    20   120   121    1
    21   147   149   ar
    22   150   149   ar
    23   150   151    1
    24   119   118    1
    25   119   122    1
    26   113   112    1
    27   134   133    1
    28   134   137    1
    29     2     5    1
    30     2     3    1
    31     5     6    1
    32   133   139    1
    33     3     4    2
    34   115   112    1
    35   115   116    1
    36   115   117    1
    37     9    10    1
    38   112   111    1
    39   137   138    1
    40   122   123    1
    41   124   123   ar
    42   124   126   ar
    43   139   138    1
    44     6     8    1
    45     6     7    1
    46   123   125   ar
    47    10    13    1
    48    10    11    1
    49   108   107    2
    50    13    14    1
    51   111   107   am
    52   126   127   ar
    53   107   106    1
    54    66    65   ar
    55   125   127   ar
    56    65    67   ar
    57    65    64    1
    58    64    63    1
    59    16    14   ar
    60    16    18   ar
    61    11    20   am
    62    11    12    2
    63    14    15   ar
    64    20    21    1
    65    63    60    1
    66   106   105    1
    67   106   109    1
    68    18    19   ar
    69    26    28   ar
    70    26    25   ar
    71    15    17   ar
    72    21    22    1
    73    21    24    1
    74    22    23    2
    75    28    29   ar
    76   109   110    1
    77    24    25    1
    78    57    58    1
    79    57    54    1
    80    60    59    1
    81    60    61    1
    82    25    27   ar
    83    19    17   ar
    84    56    55    2
    85    55    54    1
    86    61    62    2
    87    82    81    1
    88    29    27   ar
    89    54    53    1
    90    41    40    2
    91    53    49   am
    92    30    31    1
    93    40    39    1
    94    81    78    1
    95    52    51    1
    96    43    44    1
    97    43    42    1
    98    46    44   am
    99    47    48    1
   100    36    35    2
   101    44    45    2
   102    38    39    1
   103    38    32   am
   104    49    48    1
   105    49    50    2
   106    31    32    1
   107    31    34    1
   108    39    42    1
   109    78    77    1
   110    78    79    1
   111    77    70   am
   112    72    73    1
   113    72    69    1
   114    35    34    1
   115    35    37   am
   116    73    74    1
   117   104   102   ar
   118   104   103   ar
   119    48    51    1
   120    32    33    2
   121   102   100   ar
   122   103   101   ar
   123    68    69    1
   124    70    69    1
   125    70    71    2
   126    79    80    2
   127   100   101   ar
   128   100    99    1
   129    74    75    2
   130    74    76   am
   131    99    96    1
   132    93    94    1
   133    93    90    1
   134    96    95    1
   135    96    97    1
   136    95    91   am
   137    83    84    1
   138    88    87    1
   139    89    90    1
   140    89    85   am
   141    97    98    2
   142    91    90    1
   143    91    92    2
   144    87    84    1
   145    84    85    1
   146    85    86    2
