@<TRIPOS>MOLECULE
tmp/1jrxB05.pdb
 111 103 0 0 0
SMALL
GASTEIGER

@<TRIPOS>ATOM
      1  N         -2.4770   -1.0330   53.4860 N.3   168  ALA168     -0.1231
      2  CA        -3.3170   -2.2340   53.4400 C.3   168  ALA168      0.1694
      3  C         -4.3540   -2.2070   54.5410 C.2   168  ALA168      0.2592
      4  O         -4.0790   -1.6770   55.5940 O.2   168  ALA168     -0.2718
      5  CB        -2.4640   -3.5020   53.3930 C.3   168  ALA168      0.0304
      6  N         -5.5810   -2.6880   54.2880 N.am  169  ALA169     -0.1966
      7  CA        -6.5570   -2.4610   55.3650 C.3   169  ALA169      0.1728
      8  C         -7.2870   -3.7410   55.6800 C.2   169  ALA169      0.2617
      9  O         -7.2030   -4.2180   56.8180 O.2   169  ALA169     -0.2715
     10  CB        -7.5090   -1.3640   54.9280 C.3   169  ALA169      0.0334
     11  N         -7.8720   -4.3520   54.6870 N.am  170  GLY170     -0.1940
     12  CA        -8.6720   -5.5310   54.7970 C.3   170  GLY170      0.2014
     13  C         -8.1340   -6.6630   55.6070 C.2   170  GLY170      0.2639
     14  O         -8.8890   -7.2680   56.3850 O.2   170  GLY170     -0.2714
     15  N         -6.8380   -6.9830   55.4630 N.am  171  GLY171     -0.1954
     16  CA        -6.3410   -8.1220   56.2210 C.3   171  GLY171      0.1869
     17  C         -5.3590   -8.9760   55.4380 C.2   171  GLY171      0.2309
     18  O         -5.0620   -8.7900   54.2470 O.2   171  GLY171     -0.2863
     19  N        -13.3480  -11.6170   53.0750 N.3   236  MET236     -0.1245
     20  CA       -13.0230  -10.7810   51.9150 C.3   236  MET236      0.1570
     21  C        -13.6710  -11.5290   50.7310 C.2   236  MET236      0.2261
     22  O        -14.1120  -12.6520   50.8510 O.2   236  MET236     -0.2867
     23  CB       -11.5470  -10.5640   51.7850 C.3   236  MET236      0.0387
     24  CG       -10.7950   -9.7980   52.8420 C.3   236  MET236      0.0595
     25  SD       -11.2870   -8.0480   52.9910 S.3   236  MET236     -0.1393
     26  CE        -9.9720   -7.3870   51.9170 C.3   236  MET236      0.0692
     27  N         -5.1610   -5.8490   38.5350 N.3   363  GLN363     -0.1245
     28  CA        -6.3860   -5.7390   39.3190 C.3   363  GLN363      0.1566
     29  C         -6.7870   -4.2760   39.5000 C.2   363  GLN363      0.2260
     30  O         -6.0660   -3.3890   39.9350 O.2   363  GLN363     -0.2867
     31  CB        -6.1840   -6.3380   40.6860 C.3   363  GLN363      0.0367
     32  CG        -7.3970   -6.1820   41.6220 C.3   363  GLN363      0.0905
     33  CD        -7.2300   -7.1710   42.7590 C.2   363  GLN363      0.2608
     34  OE1       -6.4240   -6.9130   43.6270 O.2   363  GLN363     -0.2717
     35  NE2       -7.8240   -8.3460   42.6940 N.am  363  GLN363     -0.0878
     36  N         -9.1950   -2.3780   41.9040 N.3   365  HIS365     -0.1241
     37  CA        -9.9540   -2.4780   43.1520 C.3   365  HIS365      0.1621
     38  C        -11.3050   -1.8460   42.7850 C.2   365  HIS365      0.2264
     39  O        -11.3020   -0.7290   42.2630 O.2   365  HIS365     -0.2867
     40  CB        -9.2890   -1.6640   44.2270 C.3   365  HIS365      0.0745
     41  CG        -9.8770   -1.9620   45.5700 C.ar  365  HIS365      0.0817
     42  ND1      -11.1260   -1.5090   45.8800 N.ar  365  HIS365     -0.2268
     43  CD2       -9.4470   -2.6220   46.6590 C.ar  365  HIS365      0.1154
     44  CE1      -11.4300   -1.8940   47.1050 C.ar  365  HIS365      0.1986
     45  NE2      -10.4190   -2.5450   47.6130 N.ar  365  HIS365     -0.2212
     46  N         -8.5480    4.1840   48.3890 N.3   375  MET375     -0.1245
     47  CA        -9.1820    2.9100   48.4360 C.3   375  MET375      0.1570
     48  C        -10.0920    2.8910   49.6790 C.2   375  MET375      0.2261
     49  O         -9.7630    3.4620   50.7290 O.2   375  MET375     -0.2867
     50  CB        -8.1380    1.7940   48.5790 C.3   375  MET375      0.0387
     51  CG        -8.7800    0.4030   48.4510 C.3   375  MET375      0.0595
     52  SD        -7.7010   -0.8890   49.0510 S.3   375  MET375     -0.1393
     53  CE        -7.7070   -0.7790   50.8090 C.3   375  MET375      0.0692
     54  N        -11.7510   -0.0290   51.8330 N.3   377  THR377     -0.1203
     55  CA       -11.4610   -1.4570   51.8910 C.3   377  THR377      0.1994
     56  C        -12.6530   -2.3150   51.5520 C.2   377  THR377      0.2620
     57  O        -13.8140   -2.0730   51.8610 O.2   377  THR377     -0.2717
     58  CB       -10.8610   -1.8740   53.2400 C.3   377  THR377      0.1784
     59  OG1      -10.6010   -3.2690   53.3940 O.3   377  THR377     -0.2211
     60  CG2      -11.7820   -1.6000   54.4410 C.3   377  THR377      0.0376
     61  N        -12.3660   -3.4570   50.9730 N.am  378  GLU378     -0.1933
     62  CA       -13.2720   -4.5610   50.6580 C.3   378  GLU378      0.1818
     63  C        -13.8530   -5.1500   51.9370 C.2   378  GLU378      0.2332
     64  O        -14.9800   -5.6520   52.0090 O.2   378  GLU378     -0.2860
     65  CB       -12.4300   -5.6680   49.9840 C.2   378  GLU378      0.0097
     66  CG       -13.1930   -6.9220   49.6220 C.2   378  GLU378      0.0837
     67  CD       -12.4290   -7.9640   48.8480 C.2   378  GLU378      0.3877
     68  OE1      -11.9760   -7.7870   47.7290 O.co2 378  GLU378     -0.2406
     69  OE2      -12.2410   -9.1160   49.2670 O.co2 378  GLU378     -0.2406
     70  N         -5.0440   -1.1110   41.1320 N.3   504  HIS504     -0.1241
     71  CA        -4.6130   -1.3800   42.5110 C.3   504  HIS504      0.1621
     72  C         -3.4820   -2.3500   42.6780 C.2   504  HIS504      0.2264
     73  O         -2.5760   -2.1180   43.5100 O.2   504  HIS504     -0.2867
     74  CB        -5.9170   -1.9380   43.1110 C.3   504  HIS504      0.0745
     75  CG        -5.7680   -2.3490   44.5390 C.ar  504  HIS504      0.0817
     76  ND1       -5.4790   -1.4640   45.5460 N.ar  504  HIS504     -0.2268
     77  CD2       -5.8860   -3.5770   45.0970 C.ar  504  HIS504      0.1154
     78  CE1       -5.5000   -2.1200   46.6980 C.ar  504  HIS504      0.1986
     79  NE2       -5.7480   -3.3870   46.4470 N.ar  504  HIS504     -0.2212
     80  N         -6.2730  -11.4010   42.0520 N.3   544  ARG544     -0.1245
     81  CA        -5.8610  -11.6450   43.4180 C.3   544  ARG544      0.1563
     82  C         -7.0290  -11.4840   44.3850 C.2   544  ARG544      0.2260
     83  O         -7.8570  -10.5850   44.3040 O.2   544  ARG544     -0.2867
     84  CB        -4.7770  -10.6230   43.8020 C.3   544  ARG544      0.0307
     85  CG        -4.2730  -10.9680   45.2090 C.3   544  ARG544      0.0489
     86  CD        -3.0890  -10.0330   45.4460 C.3   544  ARG544      0.2205
     87  NE        -3.4910   -8.6470   45.3860 N.pl3 544  ARG544     -0.0865
     88  CZ        -4.1830   -8.0370   46.3270 C.cat 544  ARG544      0.5346
     89  NH1       -4.4760   -6.7400   46.2120 N.pl3 544  ARG544      0.1354
     90  NH2       -4.6250   -8.6490   47.4110 N.pl3 544  ARG544      0.1354
     91  N         -8.6820  -10.5370   47.9010 N.3   546  GLY546     -0.1210
     92  CA        -8.4790   -9.5530   48.9470 C.3   546  GLY546      0.1956
     93  C         -7.8860  -10.3120   50.1360 C.2   546  GLY546      0.2612
     94  O         -8.4350  -11.3670   50.4600 O.2   546  GLY546     -0.2717
     95  N         -6.7830   -9.8030   50.6990 N.am  547  GLY547     -0.1956
     96  CA        -6.0640  -10.4360   51.7730 C.3   547  GLY547      0.1869
     97  C         -4.8830  -11.3000   51.3890 C.2   547  GLY547      0.2309
     98  O         -4.0580  -11.6170   52.2250 O.2   547  GLY547     -0.2863
     99  N         -2.4470  -10.5920   49.1930 N.3   549  ALA549     -0.1231
    100  CA        -1.2530   -9.8320   48.8560 C.3   549  ALA549      0.1694
    101  C         -0.4220   -9.7150   50.1420 C.2   549  ALA549      0.2591
    102  O          0.7580   -9.9760   50.0680 O.2   549  ALA549     -0.2718
    103  CB        -1.5420   -8.4840   48.2180 C.3   549  ALA549      0.0304
    104  N         -1.0440   -9.3510   51.2560 N.am  550  ILE550     -0.1980
    105  CA        -0.2730   -9.2470   52.4960 C.3   550  ILE550      0.1595
    106  C          0.2290  -10.6210   52.9250 C.2   550  ILE550      0.2287
    107  O          1.3410  -10.7540   53.3920 O.2   550  ILE550     -0.2864
    108  CB        -1.0650   -8.5430   53.6100 C.3   550  ILE550      0.0276
    109  CG1       -1.3240   -7.0950   53.1500 C.3   550  ILE550      0.0022
    110  CG2       -0.3980   -8.5490   54.9880 C.3   550  ILE550      0.0022
    111  CD1       -0.1320   -6.1320   53.1170 C.3   550  ILE550      0.0001
@<TRIPOS>BOND
     1    27    28    1
     2    28    29    1
     3    28    31    1
     4    29    30    2
     5    31    32    1
     6    70    71    1
     7    32    33    1
     8    36    37    1
     9    80    81    1
    10    39    38    2
    11    71    72    1
    12    71    74    1
    13    72    73    2
    14    35    33   am
    15    33    34    2
    16    38    37    1
    17    74    75    1
    18    37    40    1
    19    81    84    1
    20    81    82    1
    21    84    85    1
    22    40    41    1
    23    83    82    2
    24    75    77   ar
    25    75    76   ar
    26    77    79   ar
    27    85    86    1
    28    87    86    1
    29    87    88    2
    30    76    78   ar
    31    41    42   ar
    32    41    43   ar
    33    42    44   ar
    34    89    88    1
    35    88    90    1
    36    79    78   ar
    37    43    45   ar
    38    44    45   ar
    39    68    67   ar
    40    91    92    1
    41   103   100    1
    42    46    47    1
    43    47    50    1
    44    47    48    1
    45    51    50    1
    46    51    52    1
    47    67    69   ar
    48    67    66    1
    49   100    99    1
    50   100   101    1
    51    92    93    1
    52    52    53    1
    53    66    65    2
    54    48    49    2
    55    65    62    1
    56   102   101    2
    57    93    94    2
    58    93    95   am
    59   101   104   am
    60    62    61    1
    61    62    63    1
    62    95    96    1
    63    21    22    2
    64    21    20    1
    65    61    56   am
    66   104   105    1
    67    97    96    1
    68    97    98    2
    69    56    57    2
    70    56    55    1
    71    23    20    1
    72    23    24    1
    73    54    55    1
    74    55    58    1
    75    20    19    1
    76    26    25    1
    77    63    64    2
    78   105   106    1
    79   105   108    1
    80    24    25    1
    81   106   107    2
    82   111   109    1
    83   109   108    1
    84    58    59    1
    85    58    60    1
    86     5     2    1
    87     2     1    1
    88     2     3    1
    89   108   110    1
    90    18    17    2
    91     6     3   am
    92     6     7    1
    93     3     4    2
    94    11    12    1
    95    11     8   am
    96    12    13    1
    97    10     7    1
    98     7     8    1
    99    17    16    1
   100    15    13   am
   101    15    16    1
   102    13    14    2
   103     8     9    2
