@<TRIPOS>MOLECULE
tmp/1jrxB00.pdb
 169 162 0 0 0
SMALL
GASTEIGER

@<TRIPOS>ATOM
      1  N         13.3970   26.9940   52.6290 N.3     4  LEU4       -0.1231
      2  CA        13.4960   26.7650   54.0680 C.3     4  LEU4        0.1693
      3  C         14.9100   27.0820   54.5770 C.2     4  LEU4        0.2591
      4  O         15.0610   27.5880   55.6970 O.2     4  LEU4       -0.2718
      5  CB        13.0330   25.3600   54.3650 C.3     4  LEU4        0.0284
      6  CG        12.9280   25.0060   55.8710 C.3     4  LEU4        0.0019
      7  CD1       11.8040   25.8600   56.4670 C.3     4  LEU4        0.0001
      8  CD2       12.6580   23.5200   55.9930 C.3     4  LEU4        0.0001
      9  N         15.9660   26.7050   53.8750 N.am    5  ALA5       -0.1980
     10  CA        17.3450   26.9200   54.3010 C.3     5  ALA5        0.1597
     11  C         17.6380   28.4050   54.5660 C.2     5  ALA5        0.2287
     12  O         18.0550   28.9290   55.5890 O.2     5  ALA5       -0.2864
     13  CB        18.2900   26.4590   53.2180 C.3     5  ALA5        0.0319
     14  N         16.0540   29.8020   57.5620 N.3     8  HIS8       -0.1226
     15  CA        16.7650   29.5390   58.7950 C.3     8  HIS8        0.1752
     16  C         18.0870   30.2720   58.9570 C.2     8  HIS8        0.2595
     17  O         18.4220   30.6340   60.0970 O.2     8  HIS8       -0.2718
     18  CB        17.1020   28.0460   59.0080 C.3     8  HIS8        0.0759
     19  CG        15.8830   27.2240   59.3460 C.ar    8  HIS8        0.0818
     20  ND1       15.0030   26.7620   58.3890 N.ar    8  HIS8       -0.2268
     21  CD2       15.4380   26.7780   60.5550 C.ar    8  HIS8        0.1154
     22  CE1       14.0480   26.0480   58.9680 C.ar    8  HIS8        0.1986
     23  NE2       14.3150   26.0880   60.2450 N.ar    8  HIS8       -0.2212
     24  N         18.8500   30.4650   57.8760 N.am    9  VAL9       -0.1980
     25  CA        20.1970   31.0290   57.9980 C.3     9  VAL9        0.1595
     26  C         20.1720   32.4880   58.4140 C.2     9  VAL9        0.2287
     27  O         21.1230   33.0010   58.9950 O.2     9  VAL9       -0.2864
     28  CB        21.1380   30.8610   56.7900 C.3     9  VAL9        0.0276
     29  CG1       21.4590   29.3930   56.5490 C.3     9  VAL9        0.0022
     30  CG2       20.5660   31.4900   55.5360 C.3     9  VAL9        0.0022
     31  N         23.4140   29.3770   61.8840 N.3    13  GLU13      -0.1231
     32  CA        24.3500   29.1690   60.7780 C.3    13  GLU13       0.1699
     33  C         24.0510   27.8520   60.0910 C.2    13  GLU13       0.2592
     34  O         23.3060   27.0300   60.6110 O.2    13  GLU13      -0.2718
     35  CB        25.8150   29.2190   61.1850 C.3    13  GLU13       0.0402
     36  CG        26.1980   30.5610   61.8040 C.3    13  GLU13       0.1161
     37  CD        26.4450   31.5030   60.6120 C.2    13  GLU13       0.3649
     38  OE1       26.2410   32.7160   60.8480 O.co2  13  GLU13      -0.2457
     39  OE2       26.7930   30.9950   59.5200 O.co2  13  GLU13      -0.2457
     40  N         24.8000   27.5920   59.0200 N.am   14  CYS14      -0.1970
     41  CA        24.6430   26.3320   58.3080 C.3    14  CYS14       0.1712
     42  C         24.8250   25.1140   59.2110 C.2    14  CYS14       0.2296
     43  O         24.0610   24.1430   59.1020 O.2    14  CYS14      -0.2864
     44  CB        25.7910   26.2580   57.2800 C.3    14  CYS14       0.0983
     45  SG        25.9000   27.7850   56.3520 S.3    14  CYS14      -0.0798
     46  N         23.9360   24.4870   62.0910 N.3    16  SER16      -0.1202
     47  CA        22.8260   24.2280   62.9800 C.3    16  SER16       0.2020
     48  C         22.0270   23.0390   62.3590 C.2    16  SER16       0.2619
     49  O         21.2890   22.3360   63.0140 O.2    16  SER16      -0.2717
     50  CB        21.9020   25.4340   63.0230 C.3    16  SER16       0.2103
     51  OG        21.5240   25.7110   61.6630 O.3    16  SER16      -0.2182
     52  N         22.1940   22.8440   61.0360 N.am   17  CYS17      -0.1955
     53  CA        21.5740   21.7010   60.3770 C.3    17  CYS17       0.1843
     54  C         22.5540   20.6830   59.8330 C.2    17  CYS17       0.2625
     55  O         22.2300   19.5270   59.5760 O.2    17  CYS17      -0.2714
     56  CB        20.8520   22.1910   59.1020 C.3    17  CYS17       0.0997
     57  SG        19.3520   23.0420   59.6440 S.3    17  CYS17      -0.0797
     58  N         23.7250   21.1470   59.4860 N.am   18  HIS18      -0.1973
     59  CA        24.7340   20.3660   58.8160 C.3    18  HIS18       0.1656
     60  C         25.7660   19.7640   59.7380 C.2    18  HIS18       0.2291
     61  O         25.9710   20.2730   60.8110 O.2    18  HIS18      -0.2864
     62  CB        25.4530   21.3130   57.8080 C.3    18  HIS18       0.0771
     63  CG        24.5620   21.4090   56.5890 C.ar   18  HIS18       0.0820
     64  ND1       24.3750   20.2670   55.7920 N.ar   18  HIS18      -0.2267
     65  CD2       23.8140   22.3650   56.0400 C.ar   18  HIS18       0.1154
     66  CE1       23.5680   20.5810   54.7960 C.ar   18  HIS18       0.1986
     67  NE2       23.2190   21.8290   54.9150 N.ar   18  HIS18      -0.2212
     68  N         29.8570   19.5430   56.5840 N.3    22  GLY22      -0.1210
     69  CA        28.8300   19.9430   55.6250 C.3    22  GLY22       0.1956
     70  C         28.3270   18.8080   54.7540 C.2    22  GLY22       0.2612
     71  O         27.2520   18.9940   54.1930 O.2    22  GLY22      -0.2717
     72  N         29.0280   17.6840   54.6310 N.am   23  GLU23      -0.1965
     73  CA        28.5720   16.5500   53.8370 C.3    23  GLU23       0.1733
     74  C         27.2200   16.0890   54.3630 C.2    23  GLU23       0.2616
     75  O         26.9520   16.2840   55.5420 O.2    23  GLU23      -0.2715
     76  CB        29.5960   15.4060   53.8160 C.3    23  GLU23       0.0429
     77  CG        29.1470   14.0430   53.2440 C.3    23  GLU23       0.1163
     78  CD        29.7400   12.7900   53.9310 C.2    23  GLU23       0.3649
     79  OE1       30.9660   12.7030   54.0500 O.co2  23  GLU23      -0.2457
     80  OE2       29.0010   11.8860   54.3420 O.co2  23  GLU23      -0.2457
     81  N         26.3680   15.5630   53.4930 N.am   24  LEU24      -0.1977
     82  CA        25.0790   15.0410   53.9540 C.3    24  LEU24       0.1596
     83  C         25.4170   13.7470   54.6470 C.2    24  LEU24       0.2287
     84  O         26.2260   12.9950   54.1180 O.2    24  LEU24      -0.2864
     85  CB        24.0690   14.9020   52.8140 C.3    24  LEU24       0.0297
     86  CG        23.7420   16.2760   52.1840 C.3    24  LEU24       0.0022
     87  CD1       22.9010   16.1250   50.9120 C.3    24  LEU24       0.0001
     88  CD2       23.0710   17.2090   53.1800 C.3    24  LEU24       0.0001
     89  N         19.3190   11.1960   55.3590 N.3    29  LEU29      -0.1245
     90  CA        19.4990   12.5020   55.9850 C.3    29  LEU29       0.1561
     91  C         19.3210   12.3250   57.4860 C.2    29  LEU29       0.2260
     92  O         18.6570   13.1210   58.1230 O.2    29  LEU29      -0.2867
     93  CB        18.5300   13.5290   55.4320 C.3    29  LEU29       0.0270
     94  CG        18.7830   13.8370   53.9370 C.3    29  LEU29       0.0019
     95  CD1       17.7520   14.7930   53.4050 C.3    29  LEU29       0.0001
     96  CD2       20.1880   14.4270   53.8500 C.3    29  LEU29       0.0001
     97  N         20.8030   15.3150   59.5700 N.3    32  GLU32      -0.1245
     98  CA        20.0970   16.5610   59.2690 C.3    32  GLU32       0.1567
     99  C         18.7090   16.5410   59.8610 C.2    32  GLU32       0.2260
    100  O         18.2630   17.4680   60.5380 O.2    32  GLU32      -0.2867
    101  CB        20.1000   16.7630   57.7550 C.3    32  GLU32       0.0388
    102  CG        21.4770   16.9320   57.1490 C.3    32  GLU32       0.1160
    103  CD        22.2500   15.6510   57.0030 C.2    32  GLU32       0.3649
    104  OE1       23.4820   15.6450   56.7650 O.co2  32  GLU32      -0.2457
    105  OE2       21.6890   14.5390   57.0850 O.co2  32  GLU32      -0.2457
    106  N         16.6470   18.9500   62.7360 N.3    36  CYS36      -0.1235
    107  CA        15.3220   19.5730   62.7150 C.3    36  CYS36       0.1677
    108  C         14.5820   19.1610   64.0180 C.2    36  CYS36       0.2270
    109  O         13.9510   20.0100   64.6420 O.2    36  CYS36      -0.2867
    110  CB        14.3370   19.1470   61.6140 C.3    36  CYS36       0.0956
    111  SG        15.1120   18.8410   60.0160 S.3    36  CYS36      -0.0801
    112  N         12.4830   15.7520   56.3090 N.3    69  THR69      -0.1218
    113  CA        12.9000   16.0900   54.9220 C.3    69  THR69       0.1862
    114  C         12.1270   15.3130   53.8650 C.2    69  THR69       0.2287
    115  O         12.2780   15.4930   52.6260 O.2    69  THR69      -0.2866
    116  CB        14.4070   15.9170   54.7350 C.3    69  THR69       0.1770
    117  OG1       14.7990   14.6020   55.1210 O.3    69  THR69      -0.2211
    118  CG2       15.1670   16.8760   55.6770 C.3    69  THR69       0.0375
    119  N         12.1820   20.1350   52.0750 N.3    73  SER73      -0.1202
    120  CA        13.6040   20.1670   51.6710 C.3    73  SER73       0.2020
    121  C         14.0990   21.5160   52.1820 C.2    73  SER73       0.2619
    122  O         13.2990   22.4140   52.4540 O.2    73  SER73      -0.2717
    123  CB        13.8460   20.0590   50.1710 C.3    73  SER73       0.2103
    124  OG        13.1510   18.8550   49.7550 O.3    73  SER73      -0.2182
    125  N         15.3720   21.6440   52.3810 N.am   74  ALA74      -0.1965
    126  CA        16.0090   22.8510   52.8630 C.3    74  ALA74       0.1728
    127  C         16.2900   23.8270   51.7410 C.2    74  ALA74       0.2616
    128  O         15.7490   24.9240   51.7770 O.2    74  ALA74      -0.2715
    129  CB        17.3060   22.4000   53.5030 C.3    74  ALA74       0.0334
    130  N         17.0170   23.4330   50.6890 N.am   75  HIS75      -0.1959
    131  CA        17.3710   24.4160   49.6760 C.3    75  HIS75       0.1787
    132  C         16.5540   24.4710   48.3990 C.2    75  HIS75       0.2620
    133  O         16.9620   25.1510   47.4440 O.2    75  HIS75      -0.2715
    134  CB        18.8280   24.2000   49.3000 C.3    75  HIS75       0.0785
    135  CG        19.7380   24.2010   50.4980 C.ar   75  HIS75       0.0821
    136  ND1       20.2660   25.3490   51.0270 N.ar   75  HIS75      -0.2267
    137  CD2       20.2590   23.2210   51.2320 C.ar   75  HIS75       0.1154
    138  CE1       21.0370   25.0730   52.0360 C.ar   75  HIS75       0.1986
    139  NE2       21.0820   23.8040   52.1810 N.ar   75  HIS75      -0.2212
    140  N         15.3900   23.8970   48.3670 N.am   76  GLU76      -0.1977
    141  CA        14.5200   24.0610   47.1980 C.3    76  GLU76       0.1602
    142  C         13.1030   23.9220   47.7270 C.2    76  GLU76       0.2287
    143  O         12.9270   23.3280   48.8110 O.2    76  GLU76      -0.2864
    144  CB        14.8660   22.9990   46.1400 C.3    76  GLU76       0.0415
    145  CG        14.6140   21.5790   46.6260 C.3    76  GLU76       0.1163
    146  CD        14.6970   20.5860   45.4860 C.2    76  GLU76       0.3649
    147  OE1       14.4310   20.9700   44.3350 O.co2  76  GLU76      -0.2457
    148  OE2       15.0210   19.3920   45.7150 O.co2  76  GLU76      -0.2457
    149  N         20.5940   11.9050   47.4570 N.3   298  TYR298     -0.1227
    150  CA        21.5050   12.9320   47.9190 C.3   298  TYR298      0.1736
    151  C         22.9460   12.5220   47.7500 C.2   298  TYR298      0.2592
    152  O         23.7420   13.4570   47.7290 O.2   298  TYR298     -0.2718
    153  CB        21.2890   13.2080   49.4600 C.3   298  TYR298      0.0548
    154  CG        19.8520   13.6720   49.6140 C.ar  298  TYR298     -0.0200
    155  CD1       18.9200   12.7900   50.1120 C.ar  298  TYR298     -0.0009
    156  CD2       19.4310   14.9210   49.1720 C.ar  298  TYR298     -0.0009
    157  CE1       17.5740   13.1410   50.2320 C.ar  298  TYR298      0.0417
    158  CE2       18.0960   15.2780   49.2700 C.ar  298  TYR298      0.0417
    159  CZ        17.1780   14.4030   49.7930 C.ar  298  TYR298      0.1957
    160  OH        15.8400   14.6920   49.9050 O.3   298  TYR298     -0.2866
    161  N         23.2460   11.2240   47.7210 N.am  299  LYS299     -0.2033
    162  CA        24.6340   10.8310   47.6500 C.3   299  LYS299      0.1282
    163  C         25.0020   10.3480   46.2620 C.3   299  LYS299      0.2036
    164  O         26.1610    9.9840   46.1460 O.3   299  LYS299     -0.2185
    165  CB        25.0660    9.7240   48.6270 C.3   299  LYS299      0.0244
    166  CG        25.0900   10.0090   50.0950 C.3   299  LYS299      0.0034
    167  CD        25.4180   11.4300   50.5260 C.3   299  LYS299      0.0206
    168  CE        26.7480   11.5470   51.2570 C.3   299  LYS299      0.1093
    169  NZ        27.9310   11.5780   50.3430 N.3   299  LYS299     -0.1314
@<TRIPOS>BOND
     1   147   146   ar
     2   146   148   ar
     3   146   145    1
     4   144   145    1
     5   144   141    1
     6   164   163    1
     7   163   162    1
     8   141   142    1
     9   141   140    1
    10   133   132    2
    11   149   150    1
    12   162   161    1
    13   162   165    1
    14   161   151   am
    15   142   143    2
    16   152   151    2
    17   151   150    1
    18   150   153    1
    19   140   132   am
    20   132   131    1
    21   165   166    1
    22   156   158   ar
    23   156   154   ar
    24   158   159   ar
    25   134   131    1
    26   134   135    1
    27   153   154    1
    28   154   155   ar
    29   131   130    1
    30   124   123    1
    31   159   160    1
    32   159   157   ar
    33   166   167    1
    34   155   157   ar
    35   123   120    1
    36   169   168    1
    37   135   136   ar
    38   135   137   ar
    39   167   168    1
    40   130   127   am
    41    87    86    1
    42   136   138   ar
    43   137   139   ar
    44   120   119    1
    45   120   121    1
    46   127   128    2
    47   127   126    1
    48   138   139   ar
    49   121   125   am
    50   121   122    2
    51    86    85    1
    52    86    88    1
    53   125   126    1
    54   115   114    2
    55     1     2    1
    56    85    82    1
    57   126   129    1
    58    13    10    1
    59    77    76    1
    60    77    78    1
    61    95    94    1
    62    81    82    1
    63    81    74   am
    64    76    73    1
    65    73    74    1
    66    73    72    1
    67    96    94    1
    68   114   113    1
    69     9    10    1
    70     9     3   am
    71    78    79   ar
    72    78    80   ar
    73    94    93    1
    74    82    83    1
    75     2     5    1
    76     2     3    1
    77    84    83    2
    78    71    70    2
    79    10    11    1
    80    74    75    2
    81     5     6    1
    82    11    12    2
    83     3     4    2
    84    72    70   am
    85   116   113    1
    86   116   117    1
    87   116   118    1
    88    70    69    1
    89    66    67   ar
    90    66    64   ar
    91    67    65   ar
    92   113   112    1
    93    89    90    1
    94    93    90    1
    95    30    28    1
    96    69    68    1
    97    64    63   ar
    98     6     8    1
    99     6     7    1
   100    90    91    1
   101    65    63   ar
   102    45    44    1
   103    29    28    1
   104    63    62    1
   105   104   103   ar
   106    28    25    1
   107   103   105   ar
   108   103   102    1
   109   102   101    1
   110    44    41    1
   111    91    92    2
   112    14    15    1
   113   101    98    1
   114    62    59    1
   115    24    25    1
   116    24    16   am
   117    25    26    1
   118    41    40    1
   119    41    42    1
   120    20    22   ar
   121    20    19   ar
   122    26    27    2
   123    15    16    1
   124    15    18    1
   125    59    58    1
   126    59    60    1
   127    16    17    2
   128    22    23   ar
   129    18    19    1
   130    40    33   am
   131    43    42    2
   132    56    57    1
   133    56    53    1
   134    98    97    1
   135    98    99    1
   136    19    21   ar
   137    58    54   am
   138    39    37   ar
   139    55    54    2
   140    60    61    2
   141    54    53    1
   142    99   100    2
   143   111   110    1
   144    33    34    2
   145    33    32    1
   146    23    21   ar
   147    53    52    1
   148    37    38   ar
   149    37    36    1
   150    32    35    1
   151    32    31    1
   152    52    48   am
   153    35    36    1
   154   110   107    1
   155    51    50    1
   156    46    47    1
   157    48    47    1
   158    48    49    2
   159   107   106    1
   160   107   108    1
   161    47    50    1
   162   108   109    2
