@<TRIPOS>MOLECULE
tmp/1jrxB02.pdb
 212 208 0 0 0
SMALL
GASTEIGER

@<TRIPOS>ATOM
      1  N         16.6470   18.9500   62.7360 N.3    36  CYS36      -0.1221
      2  CA        15.3220   19.5730   62.7150 C.3    36  CYS36       0.1808
      3  C         14.5820   19.1610   64.0180 C.2    36  CYS36       0.2601
      4  O         13.9510   20.0100   64.6420 O.2    36  CYS36      -0.2717
      5  CB        14.3370   19.1470   61.6140 C.3    36  CYS36       0.0970
      6  SG        15.1120   18.8410   60.0160 S.3    36  CYS36      -0.0800
      7  N         14.6900   17.8810   64.3550 N.am   37  VAL37      -0.1979
      8  CA        14.0260   17.4170   65.5810 C.3    37  VAL37       0.1595
      9  C         14.6270   18.0960   66.8250 C.2    37  VAL37       0.2287
     10  O         13.8470   18.5180   67.6680 O.2    37  VAL37      -0.2864
     11  CB        14.0440   15.8910   65.7060 C.3    37  VAL37       0.0276
     12  CG1       13.6200   15.3680   67.0820 C.3    37  VAL37       0.0022
     13  CG2       13.0290   15.3940   64.6290 C.3    37  VAL37       0.0022
     14  N         12.7060   21.5450   66.6550 N.3    40  HIS40      -0.1226
     15  CA        11.2410   21.5910   66.5620 C.3    40  HIS40       0.1752
     16  C         10.6210   20.4690   67.3680 C.2    40  HIS40       0.2597
     17  O          9.4470   20.4630   67.5290 O.2    40  HIS40      -0.2718
     18  CB        10.9080   21.3980   65.0820 C.3    40  HIS40       0.0759
     19  CG        11.2230   22.6100   64.2600 C.ar   40  HIS40       0.0818
     20  ND1       10.4240   23.7160   64.2630 N.ar   40  HIS40      -0.2268
     21  CD2       12.2890   22.8960   63.4340 C.ar   40  HIS40       0.1154
     22  CE1       10.9210   24.6530   63.4790 C.ar   40  HIS40       0.1986
     23  NE2       12.0620   24.1510   62.9690 N.ar   40  HIS40      -0.2212
     24  N         11.3750   19.4630   67.7930 N.am   41  GLY41      -0.1942
     25  CA        10.7830   18.3490   68.5040 C.3    41  GLY41       0.2014
     26  C         10.3960   17.3000   67.4330 C.2    41  GLY41       0.2640
     27  O         10.6200   17.4540   66.2310 O.2    41  GLY41      -0.2714
     28  N         10.0120   16.1570   67.9670 N.am   42  THR42      -0.1936
     29  CA         9.6810   15.0350   67.0750 C.3    42  THR42       0.2028
     30  C          8.4700   15.4260   66.2580 C.2    42  THR42       0.2642
     31  O          7.6570   16.3160   66.5210 O.2    42  THR42      -0.2714
     32  CB         9.3320   13.7840   67.9080 C.3    42  THR42       0.1808
     33  OG1        8.2800   14.2650   68.7650 O.3    42  THR42      -0.2208
     34  CG2       10.5600   13.3060   68.6920 C.3    42  THR42       0.0379
     35  N          8.1540   14.5090   65.3460 N.am   43  LEU43      -0.1977
     36  CA         6.9630   14.6830   64.5130 C.3    43  LEU43       0.1596
     37  C          5.7490   14.7590   65.4130 C.2    43  LEU43       0.2287
     38  O          4.8510   15.5580   65.2190 O.2    43  LEU43      -0.2864
     39  CB         6.9860   13.4590   63.5890 C.3    43  LEU43       0.0297
     40  CG         6.0320   13.4640   62.4250 C.3    43  LEU43       0.0022
     41  CD1        6.3040   14.6370   61.5190 C.3    43  LEU43       0.0001
     42  CD2        6.0710   12.1120   61.7060 C.3    43  LEU43       0.0001
     43  N          5.6900   18.2420   66.8270 N.3    46  VAL46      -0.1245
     44  CA         5.3470   19.2560   65.8330 C.3    46  VAL46       0.1561
     45  C          3.8640   19.1280   65.5460 C.2    46  VAL46       0.2260
     46  O          3.1340   20.1030   65.3440 O.2    46  VAL46      -0.2867
     47  CB         6.1430   19.0490   64.5280 C.3    46  VAL46       0.0252
     48  CG1        5.7400   20.0920   63.4830 C.3    46  VAL46       0.0019
     49  CG2        7.6490   19.0310   64.6750 C.3    46  VAL46       0.0019
     50  N          1.2300   21.1370   67.0550 N.3    49  THR49      -0.1203
     51  CA         1.0920   22.4950   66.6120 C.3    49  THR49       0.1994
     52  C          0.3990   22.6040   65.2670 C.2    49  THR49       0.2618
     53  O          0.2140   23.7500   64.8530 O.2    49  THR49      -0.2717
     54  CB         2.4770   23.1750   66.5310 C.3    49  THR49       0.1784
     55  OG1        3.1940   22.7040   65.3570 O.3    49  THR49      -0.2211
     56  CG2        3.2350   22.8500   67.8320 C.3    49  THR49       0.0376
     57  N          0.1410   21.5200   64.5500 N.am   50  THR50      -0.1952
     58  CA        -0.4580   21.6010   63.2240 C.3    50  THR50       0.1897
     59  C         -1.7500   20.7910   63.1240 C.2    50  THR50       0.2313
     60  O         -2.0450   20.1870   62.0950 O.2    50  THR50      -0.2863
     61  CB         0.5140   21.1090   62.1220 C.3    50  THR50       0.1794
     62  OG1        0.8990   19.7420   62.4020 O.3    50  THR50      -0.2208
     63  CG2        1.7500   22.0040   62.0860 C.3    50  THR50       0.0378
     64  N         -5.6520   19.8960   62.6490 N.3    52  HIS52      -0.1241
     65  CA        -6.8320   20.3480   61.9090 C.3    52  HIS52       0.1621
     66  C         -7.9160   19.4160   62.4560 C.2    52  HIS52       0.2264
     67  O         -7.5470   18.3400   62.9590 O.2    52  HIS52      -0.2867
     68  CB        -6.7160   20.2810   60.4070 C.3    52  HIS52       0.0745
     69  CG        -5.7800   21.3020   59.8270 C.ar   52  HIS52       0.0817
     70  ND1       -6.1950   22.5210   59.3660 N.ar   52  HIS52      -0.2268
     71  CD2       -4.4390   21.2710   59.6310 C.ar   52  HIS52       0.1154
     72  CE1       -5.1680   23.2040   58.8880 C.ar   52  HIS52       0.1986
     73  NE2       -4.0790   22.4660   59.0610 N.ar   52  HIS52      -0.2212
     74  N         -0.8240   17.0130   58.9690 N.3    57  ALA57      -0.1231
     75  CA         0.3530   16.7110   58.1870 C.3    57  ALA57       0.1694
     76  C          1.3880   15.9050   58.9610 C.2    57  ALA57       0.2592
     77  O          2.0510   15.0550   58.3840 O.2    57  ALA57      -0.2718
     78  CB         1.0520   17.9440   57.6680 C.3    57  ALA57       0.0304
     79  N          1.5430   16.2220   60.2380 N.am   58  HIS58      -0.1976
     80  CA         2.5170   15.5470   61.0710 C.3    58  HIS58       0.1656
     81  C          2.0160   14.3820   61.8930 C.2    58  HIS58       0.2291
     82  O          2.8200   13.9020   62.7210 O.2    58  HIS58      -0.2864
     83  CB         3.0860   16.6050   62.0660 C.3    58  HIS58       0.0771
     84  CG         3.5840   17.7870   61.2990 C.ar   58  HIS58       0.0820
     85  ND1        2.8880   18.9310   61.1140 N.ar   58  HIS58      -0.2267
     86  CD2        4.7550   17.9500   60.6270 C.ar   58  HIS58       0.1154
     87  CE1        3.5850   19.7660   60.3980 C.ar   58  HIS58       0.1986
     88  NE2        4.7300   19.2190   60.0680 N.ar   58  HIS58      -0.2212
     89  N         -0.0380   11.2460   60.7240 N.3    60  SER60      -0.1217
     90  CA        -0.7910   10.5070   59.7210 C.3    60  SER60       0.1889
     91  C         -0.7620    9.0360   60.0210 C.2    60  SER60       0.2288
     92  O         -0.1650    8.5600   60.9760 O.2    60  SER60      -0.2866
     93  CB        -0.1910   10.7150   58.3240 C.3    60  SER60       0.2089
     94  OG         0.9830    9.9200   58.1960 O.3    60  SER60      -0.2183
     95  N          0.9560    6.9350   58.3530 N.3    62  PHE62      -0.1241
     96  CA         2.2440    6.3870   57.9440 C.3    62  PHE62       0.1605
     97  C          2.9730    5.8280   59.1590 C.2    62  PHE62       0.2264
     98  O          3.2200    6.5140   60.1330 O.2    62  PHE62      -0.2867
     99  CB         3.1220    7.4510   57.2860 C.3    62  PHE62       0.0534
    100  CG         2.7700    7.8030   55.8530 C.ar   62  PHE62      -0.0203
    101  CD1        1.6100    7.4010   55.2550 C.ar   62  PHE62      -0.0042
    102  CD2        3.6350    8.6130   55.1240 C.ar   62  PHE62      -0.0042
    103  CE1        1.3390    7.7290   53.9370 C.ar   62  PHE62      -0.0003
    104  CE2        3.3970    8.9370   53.7950 C.ar   62  PHE62      -0.0003
    105  CZ         2.1950    8.5360   53.2460 C.ar   62  PHE62      -0.0000
    106  N          8.6400    9.0440   60.1510 N.3    66  VAL66      -0.1231
    107  CA         8.7680    9.8070   58.9030 C.3    66  VAL66       0.1692
    108  C          9.6950   10.9990   59.0930 C.2    66  VAL66       0.2592
    109  O          9.4220   11.9180   59.8320 O.2    66  VAL66      -0.2718
    110  CB         7.3820   10.2220   58.4110 C.3    66  VAL66       0.0266
    111  CG1        7.3650   11.1020   57.1770 C.3    66  VAL66       0.0020
    112  CG2        6.5020    8.9630   58.2000 C.3    66  VAL66       0.0020
    113  N         10.7600   11.0430   58.3260 N.am   67  ALA67      -0.1966
    114  CA        11.7250   12.1760   58.4030 C.3    67  ALA67       0.1728
    115  C         11.0670   13.4510   57.9160 C.2    67  ALA67       0.2616
    116  O         10.2600   13.5080   56.9930 O.2    67  ALA67      -0.2715
    117  CB        12.9220   11.7070   57.5830 C.3    67  ALA67       0.0334
    118  N         11.4120   14.5930   58.5210 N.am   68  CYS68      -0.1968
    119  CA        10.9500   15.9130   58.1760 C.3    68  CYS68       0.1712
    120  C         11.3020   16.2230   56.7330 C.2    68  CYS68       0.2296
    121  O         10.4990   16.8890   56.0920 O.2    68  CYS68      -0.2864
    122  CB        11.6360   17.0690   58.9850 C.3    68  CYS68       0.0983
    123  SG        11.9050   16.4760   60.7000 S.3    68  CYS68      -0.0798
    124  N         11.2430   14.4260   54.3220 N.3    70  SER70      -0.1202
    125  CA        10.3570   13.7010   53.4020 C.3    70  SER70       0.2020
    126  C          9.4740   14.7430   52.7040 C.2    70  SER70       0.2619
    127  O          9.0500   14.5290   51.5830 O.2    70  SER70      -0.2717
    128  CB         9.4850   12.7490   54.2160 C.3    70  SER70       0.2103
    129  OG        10.1710   11.6340   54.7340 O.3    70  SER70      -0.2182
    130  N          9.1430   15.8390   53.3880 N.am   71  CYS71      -0.1955
    131  CA         8.3430   16.8810   52.7940 C.3    71  CYS71       0.1843
    132  C          9.0360   18.2330   52.7970 C.2    71  CYS71       0.2622
    133  O          8.7670   19.0290   51.9390 O.2    71  CYS71      -0.2715
    134  CB         7.1060   17.0330   53.7220 C.3    71  CYS71       0.0997
    135  SG         6.1740   15.4810   53.5960 S.3    71  CYS71      -0.0797
    136  N          9.8910   18.4130   53.8320 N.am   72  HIS72      -0.2026
    137  CA        10.5420   19.7410   53.8220 C.3    72  HIS72       0.1342
    138  C         11.9400   19.5980   53.2560 C.3    72  HIS72       0.2040
    139  O         12.7770   19.0890   54.0390 O.3    72  HIS72      -0.2185
    140  CB        10.6560   20.1970   55.2600 C.3    72  HIS72       0.0718
    141  CG         9.3680   20.4440   55.9850 C.ar   72  HIS72       0.0817
    142  ND1        8.6830   21.6060   55.8300 N.ar   72  HIS72      -0.2268
    143  CD2        8.7000   19.7010   56.9000 C.ar   72  HIS72       0.1154
    144  CE1        7.6130   21.6180   56.5940 C.ar   72  HIS72       0.1986
    145  NE2        7.6150   20.4600   57.2420 N.ar   72  HIS72      -0.2212
    146  N          4.4360   18.1710   49.4890 N.3    80  VAL80      -0.1231
    147  CA         3.7460   17.5300   50.5810 C.3    80  VAL80       0.1692
    148  C          3.4330   16.0980   50.2070 C.2    80  VAL80       0.2592
    149  O          2.6470   15.9250   49.2810 O.2    80  VAL80      -0.2718
    150  CB         2.5030   18.3260   51.0180 C.3    80  VAL80       0.0266
    151  CG1        1.8790   17.6040   52.2090 C.3    80  VAL80       0.0020
    152  CG2        3.0230   19.7250   51.3950 C.3    80  VAL80       0.0020
    153  N          4.0610   15.1410   50.9180 N.am   81  TYR81      -0.1962
    154  CA         3.9530   13.7630   50.4300 C.3    81  TYR81       0.1771
    155  C          2.4730   13.3200   50.4290 C.2    81  TYR81       0.2619
    156  O          2.0350   12.7150   49.4610 O.2    81  TYR81      -0.2715
    157  CB         4.8150   12.8130   51.2570 C.3    81  TYR81       0.0574
    158  CG         5.0260   11.4500   50.5970 C.ar   81  TYR81      -0.0198
    159  CD1        6.1100   11.2850   49.7270 C.ar   81  TYR81      -0.0009
    160  CD2        4.1460   10.4030   50.8130 C.ar   81  TYR81      -0.0009
    161  CE1        6.3170   10.0610   49.1220 C.ar   81  TYR81       0.0417
    162  CE2        4.3580    9.1690   50.1900 C.ar   81  TYR81       0.0417
    163  CZ         5.4230    9.0150   49.3420 C.ar   81  TYR81       0.1957
    164  OH         5.6480    7.8050   48.7440 O.3    81  TYR81      -0.2866
    165  N          1.6830   13.7600   51.4260 N.am   82  CYS82      -0.1968
    166  CA         0.2690   13.4730   51.4860 C.3    82  CYS82       0.1712
    167  C         -0.4700   13.8840   50.2230 C.2    82  CYS82       0.2296
    168  O         -1.5440   13.3740   49.9800 O.2    82  CYS82      -0.2864
    169  CB        -0.4170   14.2420   52.6080 C.3    82  CYS82       0.0983
    170  SG         0.6110   14.4020   54.0830 S.3    82  CYS82      -0.0798
    171  N         -6.1690   20.8060   52.9980 N.3    89  ASP89      -0.1225
    172  CA        -5.8720   22.2380   52.9580 C.3    89  ASP89       0.1805
    173  C         -4.5690   22.4380   53.7450 C.2    89  ASP89       0.2598
    174  O         -4.5780   22.3480   54.9930 O.2    89  ASP89      -0.2718
    175  CB        -7.0620   23.0330   53.4900 C.3    89  ASP89       0.1424
    176  CG        -6.7780   24.5230   53.6310 C.2    89  ASP89       0.3668
    177  OD1       -5.8160   25.0420   53.0280 O.co2  89  ASP89      -0.2456
    178  OD2       -7.5100   25.2180   54.3750 O.co2  89  ASP89      -0.2456
    179  N         -3.4570   22.5330   53.0170 N.am   90  PHE90      -0.1962
    180  CA        -2.1960   22.6740   53.7020 C.3    90  PHE90       0.1771
    181  C         -1.5150   23.9980   53.3330 C.2    90  PHE90       0.2620
    182  O         -1.6110   24.4200   52.2010 O.2    90  PHE90      -0.2715
    183  CB        -1.1440   21.6190   53.3780 C.3    90  PHE90       0.0574
    184  CG        -1.4190   20.3060   54.0490 C.ar   90  PHE90      -0.0200
    185  CD1       -1.3460   19.1370   53.2980 C.ar   90  PHE90      -0.0042
    186  CD2       -1.7520   20.2660   55.3930 C.ar   90  PHE90      -0.0042
    187  CE1       -1.5780   17.9130   53.8790 C.ar   90  PHE90      -0.0003
    188  CE2       -1.9870   19.0340   55.9890 C.ar   90  PHE90      -0.0003
    189  CZ        -1.9090   17.8800   55.2410 C.ar   90  PHE90      -0.0000
    190  N         -0.7070   24.4870   54.2850 N.am   91  ASN91      -0.1958
    191  CA         0.0510   25.6940   53.8970 C.3    91  ASN91       0.1819
    192  C          1.5130   25.4000   54.1990 C.2    91  ASN91       0.2621
    193  O          2.0790   26.0950   55.0190 O.2    91  ASN91      -0.2715
    194  CB        -0.5370   26.9050   54.6460 C.3    91  ASN91       0.1195
    195  CG        -1.9610   27.2370   54.2530 C.2    91  ASN91       0.2630
    196  OD1       -2.9460   26.9500   54.9790 O.2    91  ASN91      -0.2716
    197  ND2       -2.1490   27.7620   53.0470 N.am   91  ASN91      -0.0877
    198  N          2.1180   24.3360   53.6800 N.am   92  MET92      -0.1964
    199  CA         3.5090   24.1050   54.0540 C.3    92  MET92       0.1722
    200  C          4.3820   25.2430   53.5160 C.2    92  MET92       0.2458
    201  O          4.3410   25.5390   52.3280 O.2    92  MET92      -0.2730
    202  CB         4.0530   22.8180   53.4620 C.3    92  MET92       0.0427
    203  CG         5.2480   22.3120   54.2680 C.3    92  MET92       0.0599
    204  SD         5.8980   20.8560   53.4740 S.3    92  MET92      -0.1393
    205  CE         6.1370   21.4810   51.8050 C.3    92  MET92       0.0692
    206  N          5.2010   25.8090   54.3910 N.am   93  PRO93      -0.2727
    207  CA         6.1120   26.8470   53.9410 C.3    93  PRO93       0.1402
    208  C          6.9210   26.2710   52.8090 C.2    93  PRO93       0.2269
    209  O          7.3960   25.1220   52.8980 O.2    93  PRO93      -0.2865
    210  CB         7.0130   27.0570   55.1780 C.3    93  PRO93       0.0296
    211  CG         6.1650   26.6780   56.3490 C.3    93  PRO93       0.0237
    212  CD         5.3250   25.5250   55.8310 C.3    93  PRO93       0.0939
@<TRIPOS>BOND
     1   164   163    1
     2   161   163   ar
     3   161   159   ar
     4   149   148    2
     5   163   162   ar
     6   156   155    2
     7   146   147    1
     8   159   158   ar
     9   168   167    2
    10   162   160   ar
    11   148   147    1
    12   148   153   am
    13   167   166    1
    14   155   154    1
    15   155   165   am
    16   154   153    1
    17   154   157    1
    18   147   150    1
    19   158   160   ar
    20   158   157    1
    21   150   152    1
    22   150   151    1
    23   165   166    1
    24   166   169    1
    25   127   126    2
    26   205   204    1
    27   133   132    2
    28   182   181    2
    29   201   200    2
    30   169   170    1
    31   126   130   am
    32   126   125    1
    33   131   132    1
    34   131   130    1
    35   131   134    1
    36   132   136   am
    37   208   209    2
    38   208   207    1
    39   172   171    1
    40   172   175    1
    41   172   173    1
    42   179   180    1
    43   179   173   am
    44   177   176   ar
    45   197   195   am
    46   105   104   ar
    47   105   103   ar
    48   138   137    1
    49   138   139    1
    50   185   187   ar
    51   185   184   ar
    52   181   180    1
    53   181   190   am
    54   183   180    1
    55   183   184    1
    56   125   128    1
    57   125   124    1
    58   202   199    1
    59   202   203    1
    60   204   203    1
    61   175   176    1
    62   200   199    1
    63   200   206   am
    64   135   134    1
    65   176   178   ar
    66   198   199    1
    67   198   192   am
    68   173   174    2
    69   104   102   ar
    70   137   136    1
    71   137   140    1
    72   187   189   ar
    73   191   192    1
    74   191   190    1
    75   191   194    1
    76   103   101   ar
    77   207   206    1
    78   207   210    1
    79   184   186   ar
    80   192   193    2
    81   128   129    1
    82   195   194    1
    83   195   196    2
    84   206   212    1
    85   102   100   ar
    86   210   211    1
    87   189   188   ar
    88   101   100   ar
    89   140   141    1
    90   186   188   ar
    91   142   141   ar
    92   142   144   ar
    93   212   211    1
    94   100    99    1
    95   141   143   ar
    96   121   120    2
    97   144   145   ar
    98   120   119    1
    99   143   145   ar
   100   116   115    2
   101   111   110    1
   102    99    96    1
   103   117   114    1
   104    78    75    1
   105   115   114    1
   106   115   118   am
   107    96    95    1
   108    96    97    1
   109   119   118    1
   110   119   122    1
   111    75    76    1
   112    75    74    1
   113    94    93    1
   114   112   110    1
   115    93    90    1
   116   113   114    1
   117   113   108   am
   118    77    76    2
   119   110   107    1
   120    72    73   ar
   121    72    70   ar
   122   107   108    1
   123   107   106    1
   124    76    79   am
   125   122   123    1
   126    73    71   ar
   127   108   109    2
   128    97    98    2
   129    70    69   ar
   130    71    69   ar
   131    90    91    1
   132    90    89    1
   133    69    68    1
   134     6     5    1
   135    91    92    2
   136    88    87   ar
   137    88    86   ar
   138    79    80    1
   139    87    85   ar
   140    68    65    1
   141    86    84   ar
   142    80    81    1
   143    80    83    1
   144    85    84   ar
   145    84    83    1
   146    41    40    1
   147     5     2    1
   148    42    40    1
   149    81    82    2
   150    65    66    1
   151    65    64    1
   152    63    61    1
   153    60    59    2
   154    61    62    1
   155    61    58    1
   156    40    39    1
   157    66    67    2
   158     2     1    1
   159     2     3    1
   160    23    21   ar
   161    23    22   ar
   162    59    58    1
   163    58    57    1
   164    21    19   ar
   165    22    20   ar
   166    48    47    1
   167    39    36    1
   168     3     7   am
   169     3     4    2
   170    19    20   ar
   171    19    18    1
   172     7     8    1
   173    36    35    1
   174    36    37    1
   175    47    49    1
   176    47    44    1
   177    57    52   am
   178    13    11    1
   179    53    52    2
   180    18    15    1
   181    38    37    2
   182    52    51    1
   183    46    45    2
   184    35    30   am
   185    55    54    1
   186    45    44    1
   187     8    11    1
   188     8     9    1
   189    11    12    1
   190    44    43    1
   191    27    26    2
   192    30    31    2
   193    30    29    1
   194    54    51    1
   195    54    56    1
   196    15    14    1
   197    15    16    1
   198    51    50    1
   199     9    10    2
   200    29    32    1
   201    29    28    1
   202    16    17    2
   203    16    24   am
   204    26    28   am
   205    26    25    1
   206    24    25    1
   207    32    34    1
   208    32    33    1
