@<TRIPOS>MOLECULE
tmp/1js3A01.pdb
 117 116 0 0 0
SMALL
GASTEIGER

@<TRIPOS>ATOM
      1  N         29.3690   35.5600   70.8370 N.3    71  TRP71      -0.1241
      2  CA        30.2580   35.4960   69.6890 C.3    71  TRP71       0.1605
      3  C         29.5970   34.8950   68.4610 C.2    71  TRP71       0.2264
      4  O         29.9800   35.1800   67.3340 O.2    71  TRP71      -0.2867
      5  CB        31.4650   34.6230   70.0350 C.3    71  TRP71       0.0550
      6  CG        32.5280   35.3270   70.7870 C.ar   71  TRP71       0.0003
      7  CD1       32.5090   35.6910   72.1050 C.ar   71  TRP71       0.0946
      8  CD2       33.7690   35.7950   70.2560 C.ar   71  TRP71       0.0152
      9  NE1       33.6650   36.3630   72.4260 N.ar   71  TRP71      -0.2442
     10  CE2       34.4580   36.4400   71.3100 C.ar   71  TRP71       0.0810
     11  CE3       34.3690   35.7290   68.9900 C.ar   71  TRP71       0.0012
     12  CZ2       35.7170   37.0140   71.1370 C.ar   71  TRP71       0.0191
     13  CZ3       35.6240   36.3020   68.8180 C.ar   71  TRP71       0.0001
     14  CH2       36.2860   36.9350   69.8870 C.ar   71  TRP71       0.0015
     15  N         35.9060   42.0530   66.3870 N.3    79  TYR79      -0.1227
     16  CA        37.1770   41.3560   66.2440 C.3    79  TYR79       0.1736
     17  C         37.2550   40.6050   64.9360 C.2    79  TYR79       0.2595
     18  O         37.2580   41.2010   63.8570 O.2    79  TYR79      -0.2718
     19  CB        37.3190   40.3710   67.3930 C.3    79  TYR79       0.0548
     20  CG        36.9710   40.9850   68.7250 C.ar   79  TYR79      -0.0200
     21  CD1       35.8870   40.5210   69.4660 C.ar   79  TYR79      -0.0009
     22  CD2       37.7010   42.0620   69.2280 C.ar   79  TYR79      -0.0009
     23  CE1       35.5370   41.1170   70.6780 C.ar   79  TYR79       0.0417
     24  CE2       37.3560   42.6650   70.4330 C.ar   79  TYR79       0.0417
     25  CZ        36.2780   42.1850   71.1490 C.ar   79  TYR79       0.1957
     26  OH        35.9600   42.7540   72.3510 O.3    79  TYR79      -0.2866
     27  N         37.3490   39.2870   65.0580 N.am   80  PHE80      -0.1963
     28  CA        37.3820   38.3730   63.9150 C.3    80  PHE80       0.1756
     29  C         36.5240   37.2050   64.3920 C.2    80  PHE80       0.2461
     30  O         36.3390   37.0140   65.5970 O.2    80  PHE80      -0.2730
     31  CB        38.8100   37.8930   63.6330 C.3    80  PHE80       0.0574
     32  CG        39.5700   38.7530   62.6590 C.ar   80  PHE80      -0.0200
     33  CD1       40.9460   38.8960   62.7710 C.ar   80  PHE80      -0.0042
     34  CD2       38.9140   39.4020   61.6150 C.ar   80  PHE80      -0.0042
     35  CE1       41.6570   39.6690   61.8690 C.ar   80  PHE80      -0.0003
     36  CE2       39.6240   40.1780   60.7020 C.ar   80  PHE80      -0.0003
     37  CZ        41.0020   40.3110   60.8330 C.ar   80  PHE80      -0.0000
     38  N         35.9520   36.4360   63.4660 N.am   81  PRO81      -0.2716
     39  CA        35.1350   35.3140   63.9330 C.3    81  PRO81       0.1536
     40  C         35.9180   34.2810   64.7310 C.2    81  PRO81       0.2599
     41  O         37.1270   34.1520   64.5640 O.2    81  PRO81      -0.2715
     42  CB        34.6230   34.6990   62.6360 C.3    81  PRO81       0.0310
     43  CG        35.6980   35.0550   61.6320 C.3    81  PRO81       0.0237
     44  CD        35.9650   36.5010   61.9940 C.3    81  PRO81       0.0939
     45  N         35.2420   33.5860   65.6390 N.am   82  THR82      -0.1951
     46  CA        35.8970   32.4840   66.3060 C.3    82  THR82       0.1897
     47  C         35.0440   31.3370   65.8100 C.2    82  THR82       0.2313
     48  O         33.8690   31.5250   65.4980 O.2    82  THR82      -0.2863
     49  CB        35.9190   32.5410   67.8410 C.3    82  THR82       0.1794
     50  OG1       36.7880   31.5020   68.2840 O.3    82  THR82      -0.2208
     51  CG2       34.5410   32.3140   68.4630 C.3    82  THR82       0.0378
     52  N         47.2270   28.0920   69.9960 N.3   147  SER147     -0.1217
     53  CA        46.7700   29.3670   69.4590 C.3   147  SER147      0.1889
     54  C         47.8790   29.9890   68.6220 C.2   147  SER147      0.2288
     55  O         49.0380   29.5810   68.7150 O.2   147  SER147     -0.2866
     56  CB        46.4050   30.3240   70.6160 C.3   147  SER147      0.2089
     57  OG        47.5510   30.6450   71.4110 O.3   147  SER147     -0.2183
     58  N         49.9240   41.8430   65.0970 N.3   192  HIS192     -0.1241
     59  CA        49.1280   41.5940   66.2930 C.3   192  HIS192      0.1621
     60  C         50.0110   41.6700   67.5450 C.2   192  HIS192      0.2264
     61  O         51.2070   41.3880   67.4850 O.2   192  HIS192     -0.2867
     62  CB        48.4510   40.2150   66.1710 C.3   192  HIS192      0.0745
     63  CG        47.4580   39.9280   67.2550 C.ar  192  HIS192      0.0817
     64  ND1       47.7330   39.0890   68.3150 N.ar  192  HIS192     -0.2268
     65  CD2       46.2010   40.3890   67.4560 C.ar  192  HIS192      0.1154
     66  CE1       46.6860   39.0470   69.1230 C.ar  192  HIS192      0.1986
     67  NE2       45.7440   39.8270   68.6250 N.ar  192  HIS192     -0.2212
     68  N         44.8480   42.5130   61.8940 N.3   246  THR246     -0.1218
     69  CA        43.6600   42.7290   62.6990 C.3   246  THR246      0.1862
     70  C         42.9500   44.0380   62.4260 C.2   246  THR246      0.2287
     71  O         41.7220   44.0860   62.3480 O.2   246  THR246     -0.2866
     72  CB        44.0200   42.6670   64.1950 C.3   246  THR246      0.1770
     73  OG1       44.7390   41.4540   64.4470 O.3   246  THR246     -0.2211
     74  CG2       42.7760   42.6520   65.0350 C.3   246  THR246      0.0375
     75  N         46.7350   34.1920   60.9600 N.3   273  ALA273     -0.1245
     76  CA        45.6880   33.7530   61.8780 C.3   273  ALA273      0.1562
     77  C         44.2890   33.7000   61.2900 C.2   273  ALA273      0.2260
     78  O         43.6650   32.6350   61.2450 O.2   273  ALA273     -0.2867
     79  CB        45.6980   34.6150   63.1330 C.3   273  ALA273      0.0290
     80  N         44.8060   30.1820   62.0280 N.3   300  ASN300     -0.1240
     81  CA        43.8930   29.5560   62.9650 C.3   300  ASN300      0.1653
     82  C         42.6280   28.9480   62.4130 C.2   300  ASN300      0.2266
     83  O         41.7210   29.6640   61.9830 O.2   300  ASN300     -0.2867
     84  CB        43.4410   30.5350   64.0500 C.3   300  ASN300      0.1155
     85  CG        44.5520   30.9590   64.9660 C.2   300  ASN300      0.2627
     86  OD1       45.4770   30.2000   65.2450 O.2   300  ASN300     -0.2716
     87  ND2       44.4460   32.1770   65.4800 N.am  300  ASN300     -0.0877
     88  N         40.6670   27.8090   64.1490 N.3   302  HIS302     -0.1226
     89  CA        39.6970   28.1890   65.1650 C.3   302  HIS302      0.1752
     90  C         39.1660   29.6020   65.0300 C.2   302  HIS302      0.2595
     91  O         38.4120   30.0910   65.8710 O.2   302  HIS302     -0.2718
     92  CB        40.1750   27.8880   66.5970 C.3   302  HIS302      0.0759
     93  CG        41.3180   28.7200   67.0840 C.ar  302  HIS302      0.0818
     94  ND1       42.3020   28.2030   67.9050 N.ar  302  HIS302     -0.2268
     95  CD2       41.5930   30.0380   66.9490 C.ar  302  HIS302      0.1154
     96  CE1       43.1310   29.1710   68.2520 C.ar  302  HIS302      0.1986
     97  NE2       42.7230   30.2950   67.6860 N.ar  302  HIS302     -0.2212
     98  N         39.5540   30.2650   63.9540 N.am  303  LYS303     -0.1980
     99  CA        38.9840   31.5650   63.6840 C.3   303  LYS303      0.1596
    100  C         37.9750   31.3820   62.5630 C.2   303  LYS303      0.2287
    101  O         36.7690   31.3910   62.7860 O.2   303  LYS303     -0.2864
    102  CB        40.0190   32.5790   63.2230 C.3   303  LYS303      0.0298
    103  CG        40.6060   33.3860   64.3510 C.3   303  LYS303      0.0038
    104  CD        41.3460   34.5550   63.7890 C.3   303  LYS303      0.0206
    105  CE        41.8720   35.3850   64.9130 C.3   303  LYS303      0.1093
    106  NZ        42.5970   34.4790   65.8630 N.3   303  LYS303     -0.1314
    107  N         37.6650   26.6420   68.8810 N.3   309  PHE309     -0.1241
    108  CA        38.8660   27.0510   69.5510 C.3   309  PHE309      0.1605
    109  C         39.4930   26.0020   70.3810 C.2   309  PHE309      0.2264
    110  O         38.8500   25.2760   71.1480 O.2   309  PHE309     -0.2867
    111  CB        38.6890   28.2870   70.4110 C.3   309  PHE309      0.0534
    112  CG        39.9510   28.6960   71.1450 C.ar  309  PHE309     -0.0203
    113  CD1       40.2110   28.2220   72.4230 C.ar  309  PHE309     -0.0042
    114  CD2       40.8510   29.6000   70.5680 C.ar  309  PHE309     -0.0042
    115  CE1       41.3550   28.6500   73.1360 C.ar  309  PHE309     -0.0003
    116  CE2       41.9860   30.0320   71.2610 C.ar  309  PHE309     -0.0003
    117  CZ        42.2360   29.5510   72.5570 C.ar  309  PHE309     -0.0000
@<TRIPOS>BOND
     1    36    37   ar
     2    36    34   ar
     3    37    35   ar
     4    75    76    1
     5    78    77    2
     6    77    76    1
     7    34    32   ar
     8    43    44    1
     9    43    42    1
    10    35    33   ar
    11    76    79    1
    12    68    69    1
    13    83    82    2
    14    44    38    1
    15    80    81    1
    16    71    70    2
    17    82    81    1
    18    70    69    1
    19   100   101    2
    20   100    99    1
    21    42    39    1
    22    32    33   ar
    23    32    31    1
    24    69    72    1
    25    81    84    1
    26   102    99    1
    27   102   103    1
    28    38    39    1
    29    38    29   am
    30    31    28    1
    31    99    98    1
    32   104   103    1
    33   104   105    1
    34    18    17    2
    35    28    29    1
    36    28    27    1
    37    39    40    1
    38    98    90   am
    39    84    85    1
    40    88    89    1
    41    72    73    1
    42    72    74    1
    43    29    30    2
    44    41    40    2
    45    40    45   am
    46   105   106    1
    47    17    27   am
    48    17    16    1
    49    85    86    2
    50    85    87   am
    51    90    89    1
    52    90    91    2
    53    58    59    1
    54    89    92    1
    55    48    47    2
    56    45    46    1
    57    47    46    1
    58    62    59    1
    59    62    63    1
    60    16    15    1
    61    16    19    1
    62    59    60    1
    63    46    49    1
    64    92    93    1
    65    95    93   ar
    66    95    97   ar
    67    93    94   ar
    68    63    65   ar
    69    63    64   ar
    70     4     3    2
    71    19    20    1
    72    65    67   ar
    73    61    60    2
    74    97    96   ar
    75    49    50    1
    76    49    51    1
    77    94    96   ar
    78    64    66   ar
    79     3     2    1
    80    54    55    2
    81    54    53    1
    82    67    66   ar
    83    20    22   ar
    84    20    21   ar
    85    13    11   ar
    86    13    14   ar
    87   107   108    1
    88    11     8   ar
    89    22    24   ar
    90    53    52    1
    91    53    56    1
    92    21    23   ar
    93   108   109    1
    94   108   111    1
    95     2     5    1
    96     2     1    1
    97    14    12   ar
    98     5     6    1
    99     8     6   ar
   100     8    10   ar
   101   109   110    2
   102   111   112    1
   103    24    25   ar
   104   114   112   ar
   105   114   116   ar
   106    56    57    1
   107    23    25   ar
   108     6     7   ar
   109    12    10   ar
   110   112   113   ar
   111    25    26    1
   112   116   117   ar
   113    10     9   ar
   114     7     9   ar
   115   113   115   ar
   116   117   115   ar
