@<TRIPOS>MOLECULE
tmp/1js4B01.pdb
 113 112 0 0 0
SMALL
GASTEIGER

@<TRIPOS>ATOM
      1  N        114.4080   59.6620   20.6660 N.3    56  ALA56      -0.1231
      2  CA       115.4340   58.7200   20.2360 C.3    56  ALA56       0.1694
      3  C        116.6370   58.7150   21.1770 C.2    56  ALA56       0.2593
      4  O        116.4890   58.4350   22.3680 O.2    56  ALA56      -0.2718
      5  CB       115.8510   59.0640   18.7950 C.3    56  ALA56       0.0304
      6  N        117.8240   59.0080   20.6540 N.am   57  GLY57      -0.1942
      7  CA       119.0060   59.0480   21.4910 C.3    57  GLY57       0.2014
      8  C        119.1840   60.4530   22.0270 C.2    57  GLY57       0.2638
      9  O        120.2170   60.7740   22.6230 O.2    57  GLY57      -0.2714
     10  N        118.1720   61.2860   21.8030 N.am   58  ASP58      -0.1971
     11  CA       118.1610   62.6740   22.2490 C.3    58  ASP58       0.1709
     12  C        117.1420   62.8680   23.3680 C.2    58  ASP58       0.2293
     13  O        116.5880   61.8960   23.8930 O.2    58  ASP58      -0.2864
     14  CB       117.8530   63.6160   21.0780 C.3    58  ASP58       0.1436
     15  CG       116.4920   63.3520   20.4400 C.2    58  ASP58       0.3671
     16  OD1      115.8450   62.3230   20.7280 O.co2  58  ASP58      -0.2456
     17  OD2      116.0660   64.1870   19.6290 O.co2  58  ASP58      -0.2456
     18  N        120.3780   68.8000   20.5940 N.3   125  HIS125     -0.1241
     19  CA       121.3830   67.9880   19.9210 C.3   125  HIS125      0.1621
     20  C        122.8100   68.5020   20.0170 C.2   125  HIS125      0.2264
     21  O        123.7390   67.7710   19.7120 O.2   125  HIS125     -0.2867
     22  CB       120.9960   67.7590   18.4630 C.3   125  HIS125      0.0745
     23  CG       119.6950   67.0410   18.2890 C.ar  125  HIS125      0.0817
     24  ND1      119.1460   66.7740   17.0580 N.ar  125  HIS125     -0.2268
     25  CD2      118.8230   66.5450   19.2040 C.ar  125  HIS125      0.1154
     26  CE1      117.9920   66.1500   17.2110 C.ar  125  HIS125      0.1986
     27  NE2      117.7740   66.0000   18.5060 N.ar  125  HIS125     -0.2212
     28  N        125.9400   66.5940   24.4950 N.3   128  TRP128     -0.1241
     29  CA       125.9840   65.1410   24.5980 C.3   128  TRP128      0.1605
     30  C        126.1970   64.6880   26.0410 C.2   128  TRP128      0.2264
     31  O        127.3260   64.6320   26.5270 O.2   128  TRP128     -0.2867
     32  CB       127.0870   64.5660   23.6960 C.3   128  TRP128      0.0550
     33  CG       127.0010   63.0690   23.5480 C.ar  128  TRP128      0.0003
     34  CD1      127.5910   62.1220   24.3400 C.ar  128  TRP128      0.0946
     35  CD2      126.2120   62.3560   22.5850 C.ar  128  TRP128      0.0152
     36  NE1      127.2120   60.8600   23.9440 N.ar  128  TRP128     -0.2442
     37  CE2      126.3650   60.9760   22.8690 C.ar  128  TRP128      0.0810
     38  CE3      125.3910   62.7430   21.5280 C.ar  128  TRP128      0.0012
     39  CZ2      125.7180   59.9830   22.1230 C.ar  128  TRP128      0.0191
     40  CZ3      124.7450   61.7550   20.7850 C.ar  128  TRP128      0.0001
     41  CH2      124.9140   60.3960   21.0900 C.ar  128  TRP128      0.0015
     42  N        112.7490   70.0010   10.4120 N.3   204  ALA204     -0.1231
     43  CA       114.0630   69.4140   10.1710 C.3   204  ALA204      0.1694
     44  C        114.1990   68.0220   10.7660 C.2   204  ALA204      0.2592
     45  O        115.1730   67.3230   10.4920 O.2   204  ALA204     -0.2718
     46  CB       115.1460   70.3180   10.7290 C.3   204  ALA204      0.0304
     47  N        113.2140   67.6100   11.5590 N.am  205  PHE205     -0.1976
     48  CA       113.2750   66.3110   12.2120 C.3   205  PHE205      0.1639
     49  C        112.1130   65.3940   11.8460 C.2   205  PHE205      0.2290
     50  O        112.3210   64.2780   11.3720 O.2   205  PHE205     -0.2864
     51  CB       113.3540   66.5060   13.7290 C.3   205  PHE205      0.0560
     52  CG       114.3210   67.5810   14.1470 C.ar  205  PHE205     -0.0200
     53  CD1      115.6870   67.3290   14.2080 C.ar  205  PHE205     -0.0042
     54  CD2      113.8650   68.8580   14.4520 C.ar  205  PHE205     -0.0042
     55  CE1      116.5800   68.3370   14.5660 C.ar  205  PHE205     -0.0003
     56  CE2      114.7540   69.8710   14.8110 C.ar  205  PHE205     -0.0003
     57  CZ       116.1100   69.6090   14.8660 C.ar  205  PHE205     -0.0000
     58  N        117.6760   55.3740    6.2970 N.3   313  TRP313     -0.1241
     59  CA       117.3000   55.6850    7.6690 C.3   313  TRP313      0.1605
     60  C        116.3250   54.6840    8.2700 C.2   313  TRP313      0.2264
     61  O        115.2340   54.4980    7.7400 O.2   313  TRP313     -0.2867
     62  CB       116.6540   57.0550    7.6960 C.3   313  TRP313      0.0550
     63  CG       117.5580   58.1600    8.1300 C.ar  313  TRP313      0.0003
     64  CD1      118.1900   59.0810    7.3430 C.ar  313  TRP313      0.0946
     65  CD2      117.8710   58.5110    9.4920 C.ar  313  TRP313      0.0152
     66  NE1      118.8470   59.9820    8.1210 N.ar  313  TRP313     -0.2442
     67  CE2      118.6700   59.6600    9.4480 C.ar  313  TRP313      0.0810
     68  CE3      117.5410   57.9500   10.7280 C.ar  313  TRP313      0.0012
     69  CZ2      119.1650   60.2760   10.6050 C.ar  313  TRP313      0.0191
     70  CZ3      118.0170   58.5530   11.8750 C.ar  313  TRP313      0.0001
     71  CH2      118.8310   59.7160   11.8110 C.ar  313  TRP313      0.0015
     72  N        123.5940   54.9610   19.2700 N.3   376  HIS376     -0.1241
     73  CA       123.6420   56.4120   19.3400 C.3   376  HIS376      0.1621
     74  C        122.5670   56.8520   20.3380 C.2   376  HIS376      0.2264
     75  O        121.4570   57.2160   19.9460 O.2   376  HIS376     -0.2867
     76  CB       123.3600   56.9750   17.9330 C.3   376  HIS376      0.0745
     77  CG       123.5050   58.4630   17.8240 C.ar  376  HIS376      0.0817
     78  ND1      124.6760   59.0650   17.4210 N.ar  376  HIS376     -0.2268
     79  CD2      122.6230   59.4670   18.0480 C.ar  376  HIS376      0.1154
     80  CE1      124.5140   60.3780   17.3970 C.ar  376  HIS376      0.1986
     81  NE2      123.2710   60.6490   17.7760 N.ar  376  HIS376     -0.2212
     82  N        122.4550   59.1640   24.0790 N.3   378  ARG378     -0.1245
     83  CA       123.1600   59.9430   25.0980 C.3   378  ARG378      0.1563
     84  C        123.2230   59.3520   26.5120 C.2   378  ARG378      0.2260
     85  O        124.3110   59.1250   27.0410 O.2   378  ARG378     -0.2867
     86  CB       122.5980   61.3640   25.1760 C.3   378  ARG378      0.0307
     87  CG       122.9250   62.2430   24.0100 C.3   378  ARG378      0.0489
     88  CD       122.0730   63.4990   24.0230 C.3   378  ARG378      0.2205
     89  NE       122.4170   64.3820   22.9180 N.pl3 378  ARG378     -0.0865
     90  CZ       122.1700   64.1160   21.6380 C.cat 378  ARG378      0.5346
     91  NH1      121.5630   62.9870   21.2950 N.pl3 378  ARG378      0.1354
     92  NH2      122.5740   64.9570   20.6940 N.pl3 378  ARG378      0.1354
     93  N        124.5350   57.9690   13.3600 N.3   420  TYR420     -0.1241
     94  CA       123.1290   58.0610   13.7330 C.3   420  TYR420      0.1605
     95  C        122.1830   57.6280   12.6230 C.2   420  TYR420      0.2264
     96  O        120.9820   57.5090   12.8440 O.2   420  TYR420     -0.2867
     97  CB       122.7630   59.4590   14.2440 C.3   420  TYR420      0.0534
     98  CG       123.0080   60.5670   13.2540 C.ar  420  TYR420     -0.0201
     99  CD1      122.0420   60.9120   12.3140 C.ar  420  TYR420     -0.0009
    100  CD2      124.2110   61.2650   13.2510 C.ar  420  TYR420     -0.0009
    101  CE1      122.2720   61.9180   11.3910 C.ar  420  TYR420      0.0417
    102  CE2      124.4500   62.2710   12.3320 C.ar  420  TYR420      0.0417
    103  CZ       123.4770   62.5950   11.4060 C.ar  420  TYR420      0.1957
    104  OH       123.7090   63.6000   10.4960 O.3   420  TYR420     -0.2866
    105  N        121.1270   54.4790   15.0940 N.3   424  GLU424     -0.1245
    106  CA       120.1780   55.2630   15.8670 C.3   424  GLU424      0.1567
    107  C        119.1040   54.3450   16.4560 C.2   424  GLU424      0.2260
    108  O        118.8030   53.2860   15.8960 O.2   424  GLU424     -0.2867
    109  CB       119.5140   56.2900   14.9390 C.3   424  GLU424      0.0388
    110  CG       118.4730   57.2260   15.5690 C.3   424  GLU424      0.1160
    111  CD       119.0880   58.3370   16.4010 C.2   424  GLU424      0.3649
    112  OE1      119.5220   58.0490   17.5340 O.co2 424  GLU424     -0.2457
    113  OE2      119.1230   59.4960   15.9300 O.co2 424  GLU424     -0.2457
@<TRIPOS>BOND
     1    58    59    1
     2    64    66   ar
     3    64    63   ar
     4    59    62    1
     5    59    60    1
     6    62    63    1
     7    61    60    2
     8    66    67   ar
     9    63    65   ar
    10    67    65   ar
    11    67    69   ar
    12    65    68   ar
    13    43    42    1
    14    43    46    1
    15    43    44    1
    16    45    44    2
    17   104   103    1
    18    69    71   ar
    19    68    70   ar
    20    44    47   am
    21    50    49    2
    22   101   103   ar
    23   101    99   ar
    24   103   102   ar
    25    47    48    1
    26    71    70   ar
    27    49    48    1
    28    48    51    1
    29    99    98   ar
    30   102   100   ar
    31    95    96    2
    32    95    94    1
    33   100    98   ar
    34    98    97    1
    35    93    94    1
    36    51    52    1
    37    94    97    1
    38    52    53   ar
    39    52    54   ar
    40    53    55   ar
    41    54    56   ar
    42    55    57   ar
    43    56    57   ar
    44   109   110    1
    45   109   106    1
    46   105   106    1
    47   110   111    1
    48   106   107    1
    49   108   107    2
    50   113   111   ar
    51   111   112   ar
    52    24    26   ar
    53    24    23   ar
    54    26    27   ar
    55    80    78   ar
    56    80    81   ar
    57    78    77   ar
    58    81    79   ar
    59    77    76    1
    60    77    79   ar
    61    76    73    1
    62    23    22    1
    63    23    25   ar
    64    22    19    1
    65    27    25   ar
    66     5     2    1
    67    72    73    1
    68    73    74    1
    69    17    15   ar
    70    21    20    2
    71    19    20    1
    72    19    18    1
    73    75    74    2
    74     2     1    1
    75     2     3    1
    76    15    16   ar
    77    15    14    1
    78     6     3   am
    79     6     7    1
    80    92    90    1
    81    40    41   ar
    82    40    38   ar
    83    14    11    1
    84    41    39   ar
    85     3     4    2
    86    91    90    1
    87     7     8    1
    88    38    35   ar
    89    90    89    2
    90    10     8   am
    91    10    11    1
    92     8     9    2
    93    39    37   ar
    94    11    12    1
    95    35    37   ar
    96    35    33   ar
    97    37    36   ar
    98    89    88    1
    99    12    13    2
   100    33    32    1
   101    33    34   ar
   102    32    29    1
   103    36    34   ar
   104    87    88    1
   105    87    86    1
   106    82    83    1
   107    28    29    1
   108    29    30    1
   109    83    86    1
   110    83    84    1
   111    30    31    2
   112    84    85    2
