@<TRIPOS>MOLECULE
tmp/1js4A00.pdb
 189 191 0 0 0
SMALL
GASTEIGER

@<TRIPOS>ATOM
      1  N         67.6230   48.8250   11.8260 N.3   204  ALA204     -0.1231
      2  CA        66.7180   48.0360   10.9980 C.3   204  ALA204      0.1694
      3  C         65.2770   48.0970   11.4780 C.2   204  ALA204      0.2592
      4  O         64.3720   47.5960   10.8050 O.2   204  ALA204     -0.2718
      5  CB        67.1780   46.5900   10.9680 C.3   204  ALA204      0.0304
      6  N         65.0570   48.7060   12.6380 N.am  205  PHE205     -0.1962
      7  CA        63.7130   48.7610   13.1970 C.3   205  PHE205      0.1771
      8  C         63.2240   50.1770   13.4490 C.2   205  PHE205      0.2619
      9  O         62.1270   50.5570   13.0070 O.2   205  PHE205     -0.2715
     10  CB        63.6620   47.9440   14.4920 C.3   205  PHE205      0.0574
     11  CG        64.3370   46.6010   14.3860 C.ar  205  PHE205     -0.0200
     12  CD1       63.6800   45.5120   13.8250 C.ar  205  PHE205     -0.0042
     13  CD2       65.6430   46.4360   14.8260 C.ar  205  PHE205     -0.0042
     14  CE1       64.3160   44.2770   13.7060 C.ar  205  PHE205     -0.0003
     15  CE2       66.2870   45.2090   14.7130 C.ar  205  PHE205     -0.0003
     16  CZ        65.6220   44.1280   14.1510 C.ar  205  PHE205     -0.0000
     17  N         64.0080   50.9350   14.2120 N.am  206  TYR206     -0.1974
     18  CA        63.6720   52.3160   14.5230 C.3   206  TYR206      0.1639
     19  C         64.8490   53.2570   14.2480 C.2   206  TYR206      0.2290
     20  O         65.3670   53.9200   15.1390 O.2   206  TYR206     -0.2864
     21  CB        63.1750   52.4410   15.9720 C.3   206  TYR206      0.0560
     22  CG        61.8100   51.8240   16.1710 C.ar  206  TYR206     -0.0198
     23  CD1       60.6470   52.5090   15.7890 C.ar  206  TYR206     -0.0009
     24  CD2       61.6720   50.5480   16.7130 C.ar  206  TYR206     -0.0009
     25  CE1       59.3680   51.9320   15.9440 C.ar  206  TYR206      0.0417
     26  CE2       60.4050   49.9680   16.8730 C.ar  206  TYR206      0.0417
     27  CZ        59.2600   50.6670   16.4890 C.ar  206  TYR206      0.1957
     28  OH        58.0290   50.0880   16.7030 O.3   206  TYR206     -0.2866
     29  N         65.6540   58.4730   11.1460 N.3   209  TRP209     -0.1227
     30  CA        65.5720   59.0490    9.8020 C.3   209  TRP209      0.1737
     31  C         65.6880   60.5650    9.7380 C.2   209  TRP209      0.2596
     32  O         66.3640   61.0980    8.8630 O.2   209  TRP209     -0.2718
     33  CB        64.2600   58.6490    9.1200 C.3   209  TRP209      0.0564
     34  CG        64.0280   57.1870    9.0750 C.ar  209  TRP209      0.0003
     35  CD1       63.2210   56.4610    9.8980 C.ar  209  TRP209      0.0946
     36  CD2       64.6060   56.2600    8.1550 C.ar  209  TRP209      0.0152
     37  NE1       63.2600   55.1350    9.5480 N.ar  209  TRP209     -0.2442
     38  CE2       64.1030   54.9820    8.4810 C.ar  209  TRP209      0.0810
     39  CE3       65.5050   56.3830    7.0870 C.ar  209  TRP209      0.0012
     40  CZ2       64.4670   53.8320    7.7770 C.ar  209  TRP209      0.0191
     41  CZ3       65.8670   55.2390    6.3860 C.ar  209  TRP209      0.0001
     42  CH2       65.3480   53.9790    6.7360 C.ar  209  TRP209      0.0015
     43  N         64.9980   61.2520   10.6430 N.am  210  SER210     -0.1952
     44  CA        64.9830   62.7120   10.6730 C.3   210  SER210      0.1924
     45  C         66.1540   63.3450   11.4120 C.2   210  SER210      0.2314
     46  O         66.4030   64.5470   11.2670 O.2   210  SER210     -0.2863
     47  CB        63.6800   63.2010   11.3100 C.3   210  SER210      0.2116
     48  OG        63.6100   62.8140   12.6740 O.3   210  SER210     -0.2180
     49  N         59.2770   71.3110    6.3350 N.3   253  SER253     -0.1217
     50  CA        58.5590   70.0780    6.0210 C.3   253  SER253      0.1889
     51  C         57.0670   70.1030    6.3750 C.2   253  SER253      0.2288
     52  O         56.6860   70.4340    7.4980 O.2   253  SER253     -0.2866
     53  CB        59.2300   68.8930    6.7280 C.3   253  SER253      0.2089
     54  OG        60.6230   68.8300    6.4560 O.3   253  SER253     -0.2183
     55  N         54.6780   65.0590    5.7180 N.3   256  TRP256     -0.1241
     56  CA        54.6190   63.8320    6.4940 C.3   256  TRP256      0.1605
     57  C         53.7080   64.1880    7.6750 C.2   256  TRP256      0.2264
     58  O         52.7360   64.9360    7.5090 O.2   256  TRP256     -0.2867
     59  CB        56.0290   63.4200    6.9420 C.3   256  TRP256      0.0550
     60  CG        56.1760   61.9580    7.2360 C.ar  256  TRP256      0.0003
     61  CD1       56.3970   61.3850    8.4500 C.ar  256  TRP256      0.0946
     62  CD2       56.1050   60.8720    6.2900 C.ar  256  TRP256      0.0152
     63  NE1       56.4640   60.0170    8.3320 N.ar  256  TRP256     -0.2442
     64  CE2       56.2900   59.6790    7.0150 C.ar  256  TRP256      0.0810
     65  CE3       55.9040   60.8040    4.9090 C.ar  256  TRP256      0.0012
     66  CZ2       56.2800   58.4190    6.4050 C.ar  256  TRP256      0.0191
     67  CZ3       55.8920   59.5490    4.3000 C.ar  256  TRP256      0.0001
     68  CH2       56.0800   58.3780    5.0490 C.ar  256  TRP256      0.0015
     69  N         55.2540   61.4550   14.3820 N.3   259  ALA259     -0.1231
     70  CA        55.3110   60.0450   14.7360 C.3   259  ALA259      0.1694
     71  C         56.5650   59.8480   15.5820 C.2   259  ALA259      0.2592
     72  O         57.2630   60.8140   15.8770 O.2   259  ALA259     -0.2718
     73  CB        55.3450   59.1780   13.4880 C.3   259  ALA259      0.0304
     74  N         56.8550   58.6060   15.9610 N.am  260  TRP260     -0.1962
     75  CA        58.0170   58.3000   16.8040 C.3   260  TRP260      0.1771
     76  C         59.3530   58.9030   16.3540 C.2   260  TRP260      0.2620
     77  O         60.2450   59.1060   17.1750 O.2   260  TRP260     -0.2715
     78  CB        58.1740   56.7750   16.9800 C.3   260  TRP260      0.0590
     79  CG        58.3950   56.0170   15.6880 C.ar  260  TRP260      0.0006
     80  CD1       57.4380   55.4420   14.9040 C.ar  260  TRP260      0.0946
     81  CD2       59.6460   55.8060   15.0080 C.ar  260  TRP260      0.0152
     82  NE1       58.0050   54.9040   13.7710 N.ar  260  TRP260     -0.2442
     83  CE2       59.3570   55.1160   13.8040 C.ar  260  TRP260      0.0810
     84  CE3       60.9780   56.1480   15.2900 C.ar  260  TRP260      0.0012
     85  CZ2       60.3550   54.7500   12.8870 C.ar  260  TRP260      0.0191
     86  CZ3       61.9750   55.7830   14.3750 C.ar  260  TRP260      0.0001
     87  CH2       61.6530   55.0980   13.1860 C.ar  260  TRP260      0.0015
     88  N         59.4830   59.2150   15.0670 N.am  261  ASP261     -0.1957
     89  CA        60.7400   59.7400   14.5440 C.3   261  ASP261      0.1840
     90  C         60.8320   61.2490   14.3400 C.2   261  ASP261      0.2622
     91  O         61.8600   61.8570   14.6320 O.2   261  ASP261     -0.2715
     92  CB        61.0770   59.0310   13.2260 C.3   261  ASP261      0.1450
     93  CG        62.4200   59.4610   12.6460 C.2   261  ASP261      0.3671
     94  OD1       63.4760   59.0380   13.1650 O.co2 261  ASP261     -0.2456
     95  OD2       62.4180   60.2100   11.6560 O.co2 261  ASP261     -0.2456
     96  N         59.7760   61.8410   13.8020 N.am  262  ASP262     -0.1971
     97  CA        59.7650   63.2650   13.5070 C.3   262  ASP262      0.1709
     98  C         58.7660   64.0420   14.3510 C.2   262  ASP262      0.2293
     99  O         57.5540   63.8750   14.2020 O.2   262  ASP262     -0.2864
    100  CB        59.4510   63.4610   12.0180 C.3   262  ASP262      0.1436
    101  CG        59.9070   64.8100   11.4850 C.2   262  ASP262      0.3671
    102  OD1       60.2110   65.7090   12.2890 O.co2 262  ASP262     -0.2456
    103  OD2       59.9550   64.9710   10.2500 O.co2 262  ASP262     -0.2456
    104  N         56.3830   68.5560   13.2850 N.3   265  TYR265     -0.1241
    105  CA        54.9760   68.8790   13.1640 C.3   265  TYR265      0.1605
    106  C         54.3020   69.2200   14.4910 C.2   265  TYR265      0.2264
    107  O         53.4860   70.1380   14.5600 O.2   265  TYR265     -0.2867
    108  CB        54.2930   67.7380   12.4320 C.3   265  TYR265      0.0534
    109  CG        54.9620   67.4240   11.1050 C.ar  265  TYR265     -0.0201
    110  CD1       56.0190   66.5100   11.0220 C.ar  265  TYR265     -0.0009
    111  CD2       54.5280   68.0240    9.9300 C.ar  265  TYR265     -0.0009
    112  CE1       56.6210   66.2000    9.7880 C.ar  265  TYR265      0.0417
    113  CE2       55.1190   67.7250    8.7040 C.ar  265  TYR265      0.0417
    114  CZ        56.1660   66.8130    8.6360 C.ar  265  TYR265      0.1957
    115  OH        56.7560   66.5270    7.4110 O.3   265  TYR265     -0.2866
    116  N         51.2680   56.3140    4.2260 N.3   311  ASP311     -0.1239
    117  CA        52.2430   55.3020    3.8160 C.3   311  ASP311      0.1674
    118  C         51.6710   53.9020    4.0820 C.2   311  ASP311      0.2266
    119  O         50.6190   53.7780    4.7030 O.2   311  ASP311     -0.2867
    120  CB        53.5410   55.5090    4.6140 C.3   311  ASP311      0.1410
    121  CG        54.7200   54.7310    4.0470 C.2   311  ASP311      0.3668
    122  OD1       54.8670   54.6540    2.8080 O.co2 311  ASP311     -0.2456
    123  OD2       55.5140   54.2070    4.8490 O.co2 311  ASP311     -0.2456
    124  N         52.8990   51.4370    6.0690 N.3   313  TRP313     -0.1241
    125  CA        53.0600   50.9750    7.4390 C.3   313  TRP313      0.1605
    126  C         52.3120   51.8060    8.4450 C.2   313  TRP313      0.2264
    127  O         52.4870   53.0200    8.4850 O.2   313  TRP313     -0.2867
    128  CB        54.5410   50.9810    7.8050 C.3   313  TRP313      0.0550
    129  CG        55.3670   50.2970    6.7940 C.ar  313  TRP313      0.0003
    130  CD1       56.1250   50.8830    5.8170 C.ar  313  TRP313      0.0946
    131  CD2       55.5130   48.8870    6.6280 C.ar  313  TRP313      0.0152
    132  NE1       56.7340   49.9180    5.0560 N.ar  313  TRP313     -0.2442
    133  CE2       56.3760   48.6820    5.5300 C.ar  313  TRP313      0.0810
    134  CE3       54.9950   47.7710    7.3020 C.ar  313  TRP313      0.0012
    135  CZ2       56.7380   47.4050    5.0890 C.ar  313  TRP313      0.0191
    136  CZ3       55.3530   46.5010    6.8630 C.ar  313  TRP313      0.0001
    137  CH2       56.2170   46.3300    5.7660 C.ar  313  TRP313      0.0015
    138  N         47.7670   54.6410   12.1860 N.3   317  ARG317     -0.1231
    139  CA        48.5420   55.2910   13.2380 C.3   317  ARG317      0.1694
    140  C         48.8930   56.7230   12.7970 C.2   317  ARG317      0.2592
    141  O         48.8070   57.6620   13.5840 O.2   317  ARG317     -0.2718
    142  CB        49.8100   54.4710   13.5300 C.3   317  ARG317      0.0321
    143  CG        50.9130   55.1600   14.3420 C.3   317  ARG317      0.0489
    144  CD        51.9620   55.8200   13.4360 C.3   317  ARG317      0.2205
    145  NE        52.4050   54.9330   12.3590 N.pl3 317  ARG317     -0.0865
    146  CZ        53.5550   54.2670   12.3470 C.cat 317  ARG317      0.5346
    147  NH1       54.4070   54.3710   13.3600 N.pl3 317  ARG317      0.1354
    148  NH2       53.8660   53.5120   11.3040 N.pl3 317  ARG317      0.1354
    149  N         49.2720   56.8870   11.5320 N.am  318  TYR318     -0.1976
    150  CA        49.6270   58.2070   11.0100 C.3   318  TYR318      0.1639
    151  C         48.4130   59.1270   10.9650 C.2   318  TYR318      0.2290
    152  O         48.4770   60.2820   11.3990 O.2   318  TYR318     -0.2864
    153  CB        50.2350   58.0840    9.6160 C.3   318  TYR318      0.0560
    154  CG        51.6480   57.5510    9.6020 C.ar  318  TYR318     -0.0198
    155  CD1       52.6340   58.1170   10.4080 C.ar  318  TYR318     -0.0009
    156  CD2       52.0100   56.5000    8.7590 C.ar  318  TYR318     -0.0009
    157  CE1       53.9500   57.6560   10.3710 C.ar  318  TYR318      0.0417
    158  CE2       53.3280   56.0250    8.7150 C.ar  318  TYR318      0.0417
    159  CZ        54.2900   56.6150    9.5240 C.ar  318  TYR318      0.1957
    160  OH        55.5950   56.1820    9.4790 O.3   318  TYR318     -0.2866
    161  N         49.6790   44.5770   12.1160 N.3   424  GLU424     -0.1245
    162  CA        50.7050   44.9190   13.0910 C.3   424  GLU424      0.1567
    163  C         50.0790   45.8130   14.1670 C.2   424  GLU424      0.2260
    164  O         49.1670   46.5840   13.8730 O.2   424  GLU424     -0.2867
    165  CB        51.8430   45.6790   12.4040 C.3   424  GLU424      0.0388
    166  CG        52.8550   46.3370   13.3380 C.3   424  GLU424      0.1160
    167  CD        53.7370   45.3450   14.1070 C.2   424  GLU424      0.3649
    168  OE1       53.3070   44.2020   14.4020 O.co2 424  GLU424     -0.2457
    169  OE2       54.8780   45.7320   14.4350 O.co2 424  GLU424     -0.2457
    170  N         53.2530   52.7880   19.8800 N.3   428  ASP428     -0.1225
    171  CA        53.1170   54.0960   19.2530 C.3   428  ASP428      0.1805
    172  C         51.8460   54.1920   18.4020 C.2   428  ASP428      0.2597
    173  O         51.3450   55.2850   18.1610 O.2   428  ASP428     -0.2718
    174  CB        54.3730   54.4710   18.4440 C.3   428  ASP428      0.1424
    175  CG        54.4060   53.8370   17.0670 C.2   428  ASP428      0.3668
    176  OD1       54.6970   52.6290   16.9650 O.co2 428  ASP428     -0.2456
    177  OD2       54.1510   54.5480   16.0760 O.co2 428  ASP428     -0.2456
    178  N         51.2970   53.0510   17.9890 N.am  429  TYR429     -0.1976
    179  CA        50.0730   53.0420   17.1760 C.3   429  TYR429      0.1639
    180  C         48.8930   53.6080   17.9590 C.2   429  TYR429      0.2290
    181  O         48.0070   54.2510   17.3930 O.2   429  TYR429     -0.2864
    182  CB        49.7090   51.6190   16.7360 C.3   429  TYR429      0.0560
    183  CG        50.3960   51.0960   15.4890 C.ar  429  TYR429     -0.0198
    184  CD1       51.6120   51.6180   15.0420 C.ar  429  TYR429     -0.0009
    185  CD2       49.8410   50.0330   14.7840 C.ar  429  TYR429     -0.0009
    186  CE1       52.2520   51.0840   13.9220 C.ar  429  TYR429      0.0417
    187  CE2       50.4690   49.4970   13.6830 C.ar  429  TYR429      0.0417
    188  CZ        51.6710   50.0180   13.2560 C.ar  429  TYR429      0.1957
    189  OH        52.2700   49.4100   12.1760 O.3   429  TYR429     -0.2866
@<TRIPOS>BOND
     1   122   121   ar
     2   117   118    1
     3   117   116    1
     4   117   120    1
     5   121   120    1
     6   121   123   ar
     7   118   119    2
     8    67    65   ar
     9    67    68   ar
    10    65    62   ar
    11    68    66   ar
    12   132   133   ar
    13   132   130   ar
    14   135   133   ar
    15   135   137   ar
    16   133   131   ar
    17    55    56    1
    18   137   136   ar
    19   130   129   ar
    20    50    49    1
    21    50    51    1
    22    50    53    1
    23   124   125    1
    24    62    64   ar
    25    62    60   ar
    26    51    52    2
    27    41    42   ar
    28    41    39   ar
    29    66    64   ar
    30    54    53    1
    31    56    59    1
    32    56    57    1
    33   131   129   ar
    34   131   134   ar
    35    42    40   ar
    36   129   128    1
    37   136   134   ar
    38    59    60    1
    39    64    63   ar
    40    39    36   ar
    41    60    61   ar
    42   115   114    1
    43   125   128    1
    44   125   126    1
    45    58    57    2
    46    40    38   ar
    47    36    38   ar
    48    36    34   ar
    49    63    61   ar
    50   126   127    2
    51    38    37   ar
    52   114   113   ar
    53   114   112   ar
    54   113   111   ar
    55   158   156   ar
    56   158   159   ar
    57   156   154   ar
    58    32    31    2
    59    34    33    1
    60    34    35   ar
    61    33    30    1
    62   160   159    1
    63   159   157   ar
    64    37    35   ar
    65   154   153    1
    66   154   155   ar
    67   153   150    1
    68    31    30    1
    69    31    43   am
    70   112   110   ar
    71    30    29    1
    72   111   109   ar
    73   103   101   ar
    74   157   155   ar
    75    43    44    1
    76    44    47    1
    77    44    45    1
    78     4     3    2
    79   151   150    1
    80   151   152    2
    81     5     2    1
    82     2     3    1
    83     2     1    1
    84   150   149    1
    85   110   109   ar
    86   109   108    1
    87    46    45    2
    88   148   146    1
    89    47    48    1
    90     3     6   am
    91   101   100    1
    92   101   102   ar
    93   149   140   am
    94    95    93   ar
    95   100    97    1
    96   161   162    1
    97   189   188    1
    98   138   139    1
    99   146   145    2
   100   146   147    1
   101   145   144    1
   102   165   162    1
   103   165   166    1
   104   108   105    1
   105     6     7    1
   106    93    94   ar
   107    93    92    1
   108   140   139    1
   109   140   141    2
   110    85    87   ar
   111    85    83   ar
   112     9     8    2
   113   162   163    1
   114   105   104    1
   115   105   106    1
   116    87    86   ar
   117     7     8    1
   118     7    10    1
   119    92    89    1
   120   139   142    1
   121   188   187   ar
   122   188   186   ar
   123   166   167    1
   124   144   143    1
   125     8    17   am
   126    73    70    1
   127    97    96    1
   128    97    98    1
   129   142   143    1
   130   187   185   ar
   131    14    12   ar
   132    14    16   ar
   133    82    83   ar
   134    82    80   ar
   135    96    90   am
   136    83    81   ar
   137    12    11   ar
   138   164   163    2
   139   186   184   ar
   140   167   168   ar
   141   167   169   ar
   142    16    15   ar
   143    99    98    2
   144    17    18    1
   145    19    18    1
   146    19    20    2
   147    90    89    1
   148    90    91    2
   149    86    84   ar
   150    69    70    1
   151    11    10    1
   152    11    13   ar
   153   106   107    2
   154    18    21    1
   155    89    88    1
   156    15    13   ar
   157    70    71    1
   158   185   183   ar
   159    80    79   ar
   160    81    84   ar
   161    81    79   ar
   162   184   183   ar
   163    88    76   am
   164   183   182    1
   165    71    72    2
   166    71    74   am
   167    79    78    1
   168    23    25   ar
   169    23    22   ar
   170    25    27   ar
   171    74    75    1
   172    21    22    1
   173   177   175   ar
   174    22    24   ar
   175    76    75    1
   176    76    77    2
   177    27    28    1
   178    27    26   ar
   179    24    26   ar
   180   182   179    1
   181    75    78    1
   182   176   175   ar
   183   175   174    1
   184   179   180    1
   185   179   178    1
   186   181   180    2
   187   178   172   am
   188   173   172    2
   189   172   171    1
   190   174   171    1
   191   171   170    1
