@<TRIPOS>MOLECULE
tmp/1js4B00.pdb
 132 134 0 0 0
SMALL
GASTEIGER

@<TRIPOS>ATOM
      1  N        105.6140   65.0380    5.6950 N.3   209  TRP209     -0.1227
      2  CA       105.7980   64.8120    4.2670 C.3   209  TRP209      0.1737
      3  C        104.5310   64.4350    3.5050 C.2   209  TRP209      0.2596
      4  O        104.3090   64.9010    2.3900 O.2   209  TRP209     -0.2718
      5  CB       106.8420   63.7240    4.0510 C.3   209  TRP209      0.0564
      6  CG       108.1330   63.9960    4.7260 C.ar  209  TRP209      0.0003
      7  CD1      108.5820   63.4440    5.8900 C.ar  209  TRP209      0.0946
      8  CD2      109.1690   64.8620    4.2640 C.ar  209  TRP209      0.0152
      9  NE1      109.8410   63.9090    6.1790 N.ar  209  TRP209     -0.2442
     10  CE2      110.2270   64.7820    5.1950 C.ar  209  TRP209      0.0810
     11  CE3      109.3090   65.7000    3.1490 C.ar  209  TRP209      0.0012
     12  CZ2      111.4110   65.5050    5.0480 C.ar  209  TRP209      0.0191
     13  CZ3      110.4860   66.4220    3.0020 C.ar  209  TRP209      0.0001
     14  CH2      111.5230   66.3180    3.9480 C.ar  209  TRP209      0.0015
     15  N        103.7240   63.5640    4.0960 N.am  210  SER210     -0.1952
     16  CA       102.5020   63.0830    3.4610 C.3   210  SER210      0.1924
     17  C        101.2940   63.9780    3.6670 C.2   210  SER210      0.2314
     18  O        100.2990   63.8580    2.9490 O.2   210  SER210     -0.2863
     19  CB       102.1690   61.6830    3.9790 C.3   210  SER210      0.2116
     20  OG       101.8900   61.7250    5.3670 O.3   210  SER210     -0.2180
     21  N         98.9810   55.0240   -3.4370 N.3   253  SER253     -0.1217
     22  CA       100.3590   54.7470   -3.0470 C.3   253  SER253      0.1889
     23  C        100.6090   53.3210   -2.5590 C.2   253  SER253      0.2288
     24  O         99.9090   52.8260   -1.6740 O.2   253  SER253     -0.2866
     25  CB       100.7950   55.7440   -1.9770 C.3   253  SER253      0.2089
     26  OG       100.6340   57.0820   -2.4240 O.3   253  SER253     -0.2183
     27  N        105.8100   52.6850   -0.5880 N.3   256  TRP256     -0.1241
     28  CA       106.4740   52.9960    0.6720 C.3   256  TRP256      0.1605
     29  C        105.8980   52.0160    1.6950 C.2   256  TRP256      0.2264
     30  O        105.6700   50.8540    1.3690 O.2   256  TRP256     -0.2867
     31  CB       106.2000   54.4430    1.0800 C.3   256  TRP256      0.0550
     32  CG       107.2420   55.0300    2.0030 C.ar  256  TRP256      0.0003
     33  CD1      107.0770   55.4020    3.3140 C.ar  256  TRP256      0.0946
     34  CD2      108.6080   55.3360    1.6730 C.ar  256  TRP256      0.0152
     35  NE1      108.2520   55.9220    3.8150 N.ar  256  TRP256     -0.2442
     36  CE2      109.2040   55.8950    2.8260 C.ar  256  TRP256      0.0810
     37  CE3      109.3780   55.1950    0.5060 C.ar  256  TRP256      0.0012
     38  CZ2      110.5420   56.3110    2.8540 C.ar  256  TRP256      0.0191
     39  CZ3      110.7080   55.6080    0.5330 C.ar  256  TRP256      0.0001
     40  CH2      111.2740   56.1630    1.7000 C.ar  256  TRP256      0.0015
     41  N        104.5210   54.2160    8.6710 N.3   259  ALA259     -0.1231
     42  CA       105.5150   54.7100    9.6150 C.3   259  ALA259      0.1694
     43  C        104.9040   55.9460   10.2630 C.2   259  ALA259      0.2592
     44  O        103.7580   56.2980    9.9790 O.2   259  ALA259     -0.2718
     45  CB       106.8220   55.0530    8.9020 C.3   259  ALA259      0.0304
     46  N        105.6670   56.6160   11.1160 N.am  260  TRP260     -0.1962
     47  CA       105.1870   57.7980   11.8300 C.3   260  TRP260      0.1771
     48  C        104.5270   58.8870   10.9930 C.2   260  TRP260      0.2620
     49  O        103.7880   59.7060   11.5320 O.2   260  TRP260     -0.2715
     50  CB       106.3310   58.4240   12.6470 C.3   260  TRP260      0.0590
     51  CG       107.4990   58.8920   11.8090 C.ar  260  TRP260      0.0006
     52  CD1      108.6120   58.1700   11.4810 C.ar  260  TRP260      0.0946
     53  CD2      107.6450   60.1680   11.1630 C.ar  260  TRP260      0.0152
     54  NE1      109.4340   58.9110   10.6650 N.ar  260  TRP260     -0.2442
     55  CE2      108.8650   60.1390   10.4530 C.ar  260  TRP260      0.0810
     56  CE3      106.8560   61.3290   11.1050 C.ar  260  TRP260      0.0012
     57  CZ2      109.3210   61.2270    9.6950 C.ar  260  TRP260      0.0191
     58  CZ3      107.3100   62.4110   10.3500 C.ar  260  TRP260      0.0001
     59  CH2      108.5310   62.3470    9.6530 C.ar  260  TRP260      0.0015
     60  N        104.8170   58.9230    9.6960 N.am  261  ASP261     -0.1957
     61  CA       104.2800   59.9660    8.8220 C.3   261  ASP261      0.1840
     62  C        103.1050   59.5750    7.9380 C.2   261  ASP261      0.2622
     63  O        102.1760   60.3610    7.7590 O.2   261  ASP261     -0.2715
     64  CB       105.4090   60.5220    7.9380 C.3   261  ASP261      0.1450
     65  CG       104.9540   61.6600    7.0300 C.2   261  ASP261      0.3671
     66  OD1      104.7750   62.7920    7.5290 O.co2 261  ASP261     -0.2456
     67  OD2      104.7960   61.4210    5.8120 O.co2 261  ASP261     -0.2456
     68  N        103.1590   58.3860    7.3530 N.am  262  ASP262     -0.1971
     69  CA       102.1050   57.9510    6.4440 C.3   262  ASP262      0.1709
     70  C        101.3370   56.7440    6.9750 C.2   262  ASP262      0.2293
     71  O        101.9010   55.6650    7.1490 O.2   262  ASP262     -0.2864
     72  CB       102.7260   57.6320    5.0780 C.3   262  ASP262      0.1436
     73  CG       101.7180   57.6370    3.9490 C.2   262  ASP262      0.3671
     74  OD1      100.4950   57.6520    4.2090 O.co2 262  ASP262     -0.2456
     75  OD2      102.1620   57.6300    2.7830 O.co2 262  ASP262     -0.2456
     76  N         98.8000   53.0290    4.2650 N.3   265  TYR265     -0.1241
     77  CA        98.9980   51.5990    4.2040 C.3   265  TYR265      0.1605
     78  C         98.2990   50.8200    5.3200 C.2   265  TYR265      0.2264
     79  O         97.7990   49.7250    5.0920 O.2   265  TYR265     -0.2867
     80  CB       100.5030   51.3290    4.1690 C.3   265  TYR265      0.0534
     81  CG       101.2210   52.0750    3.0500 C.ar  265  TYR265     -0.0201
     82  CD1      101.7320   53.3710    3.2350 C.ar  265  TYR265     -0.0009
     83  CD2      101.3940   51.4830    1.8040 C.ar  265  TYR265     -0.0009
     84  CE1      102.4000   54.0490    2.1850 C.ar  265  TYR265      0.0417
     85  CE2      102.0480   52.1400    0.7690 C.ar  265  TYR265      0.0417
     86  CZ       102.5450   53.4170    0.9510 C.ar  265  TYR265      0.1957
     87  OH       103.1180   54.0530   -0.1340 O.3   265  TYR265     -0.2866
     88  N        114.9430   52.2740    2.7170 N.3   311  ASP311     -0.1239
     89  CA       115.6400   53.5500    2.7930 C.3   311  ASP311      0.1674
     90  C        116.8260   53.4000    3.7330 C.2   311  ASP311      0.2266
     91  O        116.8850   52.4530    4.5120 O.2   311  ASP311     -0.2867
     92  CB       114.6550   54.5900    3.3410 C.3   311  ASP311      0.1410
     93  CG       115.0920   56.0090    3.0920 C.2   311  ASP311      0.3668
     94  OD1      115.1870   56.4150    1.9180 O.co2 311  ASP311     -0.2456
     95  OD2      115.3200   56.7300    4.0810 O.co2 311  ASP311     -0.2456
     96  N        117.6760   55.3740    6.2970 N.3   313  TRP313     -0.1241
     97  CA       117.3000   55.6850    7.6690 C.3   313  TRP313      0.1605
     98  C        116.3250   54.6840    8.2700 C.2   313  TRP313      0.2264
     99  O        115.2340   54.4980    7.7400 O.2   313  TRP313     -0.2867
    100  CB       116.6540   57.0550    7.6960 C.3   313  TRP313      0.0550
    101  CG       117.5580   58.1600    8.1300 C.ar  313  TRP313      0.0003
    102  CD1      118.1900   59.0810    7.3430 C.ar  313  TRP313      0.0946
    103  CD2      117.8710   58.5110    9.4920 C.ar  313  TRP313      0.0152
    104  NE1      118.8470   59.9820    8.1210 N.ar  313  TRP313     -0.2442
    105  CE2      118.6700   59.6600    9.4480 C.ar  313  TRP313      0.0810
    106  CE3      117.5410   57.9500   10.7280 C.ar  313  TRP313      0.0012
    107  CZ2      119.1650   60.2760   10.6050 C.ar  313  TRP313      0.0191
    108  CZ3      118.0170   58.5530   11.8750 C.ar  313  TRP313      0.0001
    109  CH2      118.8310   59.7160   11.8110 C.ar  313  TRP313      0.0015
    110  N        113.4200   49.3510   10.7720 N.3   317  ARG317     -0.1231
    111  CA       112.1320   49.8440   11.2580 C.3   317  ARG317      0.1694
    112  C        111.0540   49.7170   10.1800 C.2   317  ARG317      0.2592
    113  O        109.9470   49.2560   10.4520 O.2   317  ARG317     -0.2718
    114  CB       112.2780   51.2930   11.7340 C.3   317  ARG317      0.0321
    115  CG       110.9830   52.0570   12.0110 C.3   317  ARG317      0.0489
    116  CD       110.6020   52.9450   10.8230 C.3   317  ARG317      0.2205
    117  NE       111.7610   53.6490   10.2810 N.pl3 317  ARG317     -0.0865
    118  CZ       112.0600   54.9270   10.5140 C.cat 317  ARG317      0.5346
    119  NH1      111.2880   55.6810   11.2890 N.pl3 317  ARG317      0.1354
    120  NH2      113.1440   55.4510    9.9620 N.pl3 317  ARG317      0.1354
    121  N        111.3860   50.1120    8.9550 N.am  318  TYR318     -0.1976
    122  CA       110.4400   50.0230    7.8490 C.3   318  TYR318      0.1639
    123  C        110.0410   48.5620    7.6120 C.2   318  TYR318      0.2290
    124  O        108.8560   48.2450    7.4950 O.2   318  TYR318     -0.2864
    125  CB       111.0470   50.6360    6.5870 C.3   318  TYR318      0.0560
    126  CG       111.1680   52.1490    6.6380 C.ar  318  TYR318     -0.0198
    127  CD1      110.0660   52.9430    6.9560 C.ar  318  TYR318     -0.0009
    128  CD2      112.3780   52.7860    6.3550 C.ar  318  TYR318     -0.0009
    129  CE1      110.1660   54.3320    6.9900 C.ar  318  TYR318      0.0417
    130  CE2      112.4870   54.1750    6.3870 C.ar  318  TYR318      0.0417
    131  CZ       111.3760   54.9390    6.7040 C.ar  318  TYR318      0.1957
    132  OH       111.4670   56.3070    6.7300 O.3   318  TYR318     -0.2866
@<TRIPOS>BOND
     1    21    22    1
     2    22    23    1
     3    22    25    1
     4    23    24    2
     5    26    25    1
     6    27    28    1
     7    87    86    1
     8    37    39   ar
     9    37    34   ar
    10    39    40   ar
    11    28    31    1
    12    28    29    1
    13    85    86   ar
    14    85    83   ar
    15    86    84   ar
    16    31    32    1
    17    30    29    2
    18    34    32   ar
    19    34    36   ar
    20    40    38   ar
    21    83    81   ar
    22    94    93   ar
    23    32    33   ar
    24    84    82   ar
    25     4     3    2
    26    88    89    1
    27    75    73   ar
    28    89    92    1
    29    89    90    1
    30    36    38   ar
    31    36    35   ar
    32    18    17    2
    33    13    11   ar
    34    13    14   ar
    35    81    82   ar
    36    81    80    1
    37    93    92    1
    38    93    95   ar
    39    11     8   ar
    40    33    35   ar
    41    16    17    1
    42    16    19    1
    43    16    15    1
    44     3    15   am
    45     3     2    1
    46    90    91    2
    47    14    12   ar
    48    73    74   ar
    49    73    72    1
    50    19    20    1
    51     5     2    1
    52     5     6    1
    53    80    77    1
    54    77    76    1
    55    77    78    1
    56     8     6   ar
    57     8    10   ar
    58     2     1    1
    59     6     7   ar
    60    12    10   ar
    61    72    69    1
    62    79    78    2
    63    10     9   ar
    64    67    65   ar
    65     7     9   ar
    66    96    97    1
    67   128   130   ar
    68   128   126   ar
    69   130   131   ar
    70    69    70    1
    71    69    68    1
    72   125   126    1
    73   125   122    1
    74   126   127   ar
    75   131   132    1
    76   131   129   ar
    77   127   129   ar
    78    70    71    2
    79    65    66   ar
    80    65    64    1
    81   102   104   ar
    82   102   101   ar
    83    68    62   am
    84   124   123    2
    85   123   122    1
    86    97   100    1
    87    97    98    1
    88   100   101    1
    89    99    98    2
    90    63    62    2
    91   122   121    1
    92    64    61    1
    93    62    61    1
    94   104   105   ar
    95   101   103   ar
    96    41    42    1
    97    61    60    1
    98    45    42    1
    99   121   112   am
   100   105   103   ar
   101   105   107   ar
   102   103   106   ar
   103    42    43    1
   104    59    57   ar
   105    59    58   ar
   106    57    55   ar
   107    60    48   am
   108   120   118    1
   109    44    43    2
   110   112   113    2
   111   112   111    1
   112    43    46   am
   113   117   118    2
   114   117   116    1
   115    58    56   ar
   116    55    54   ar
   117    55    53   ar
   118   118   119    1
   119   107   109   ar
   120    54    52   ar
   121   106   108   ar
   122   110   111    1
   123   116   115    1
   124    48    49    2
   125    48    47    1
   126    56    53   ar
   127    46    47    1
   128    53    51   ar
   129   111   114    1
   130    52    51   ar
   131   114   115    1
   132    51    50    1
   133   109   108   ar
   134    47    50    1
