@<TRIPOS>MOLECULE
tmp/1js6B00.pdb
 140 135 0 0 0
SMALL
GASTEIGER

@<TRIPOS>ATOM
      1  N        -27.4140  119.5260   37.4510 N.3    80  PHE80      -0.1241
      2  CA       -28.3920  119.1600   36.4260 C.3    80  PHE80       0.1605
      3  C        -29.7390  119.2130   37.1140 C.2    80  PHE80       0.2264
      4  O        -29.8120  119.2580   38.3370 O.2    80  PHE80      -0.2867
      5  CB       -28.1260  117.7470   35.8930 C.3    80  PHE80       0.0534
      6  CG       -27.1500  117.6980   34.7290 C.ar   80  PHE80      -0.0203
      7  CD1      -26.1660  116.7100   34.6710 C.ar   80  PHE80      -0.0042
      8  CD2      -27.2250  118.6240   33.6870 C.ar   80  PHE80      -0.0042
      9  CE1      -25.2680  116.6460   33.5920 C.ar   80  PHE80      -0.0003
     10  CE2      -26.3360  118.5680   32.6070 C.ar   80  PHE80      -0.0003
     11  CZ       -25.3570  117.5790   32.5610 C.ar   80  PHE80      -0.0000
     12  N        -30.4170  104.7150   41.6270 N.3   147  SER147     -0.1202
     13  CA       -29.7230  105.8540   41.0360 C.3   147  SER147      0.2020
     14  C        -28.7630  105.3990   39.9370 C.2   147  SER147      0.2619
     15  O        -28.4460  104.2100   39.8240 O.2   147  SER147     -0.2717
     16  CB       -28.9440  106.5960   42.1130 C.3   147  SER147      0.2103
     17  OG       -27.9840  105.7270   42.6690 O.3   147  SER147     -0.2182
     18  N        -28.2910  106.3470   39.1310 N.am  148  ALA148     -0.1965
     19  CA       -27.3750  106.0060   38.0590 C.3   148  ALA148      0.1728
     20  C        -26.0770  105.4320   38.6260 C.2   148  ALA148      0.2616
     21  O        -25.4580  104.5680   38.0100 O.2   148  ALA148     -0.2715
     22  CB       -27.0950  107.2210   37.2080 C.3   148  ALA148      0.0334
     23  N        -25.6680  105.8990   39.8000 N.am  149  SER149     -0.1950
     24  CA       -24.4290  105.3960   40.4050 C.3   149  SER149      0.1924
     25  C        -24.5860  103.9300   40.7800 C.2   149  SER149      0.2314
     26  O        -23.6350  103.1600   40.7130 O.2   149  SER149     -0.2863
     27  CB       -24.0400  106.2020   41.6530 C.3   149  SER149      0.2116
     28  OG       -23.8550  107.5750   41.3470 O.3   149  SER149     -0.2180
     29  N        -18.4840  110.5940   35.0040 N.3   192  HIS192     -0.1241
     30  CA       -18.9490  110.9100   36.3500 C.3   192  HIS192      0.1621
     31  C        -18.1700  110.0990   37.4020 C.2   192  HIS192      0.2264
     32  O        -17.6580  109.0020   37.1130 O.2   192  HIS192     -0.2867
     33  CB       -20.4290  110.5620   36.4450 C.3   192  HIS192      0.0745
     34  CG       -21.0540  110.9230   37.7480 C.ar  192  HIS192      0.0817
     35  ND1      -21.5500  112.1810   38.0060 N.ar  192  HIS192     -0.2268
     36  CD2      -21.2850  110.1890   38.8600 C.ar  192  HIS192      0.1154
     37  CE1      -22.0640  112.2080   39.2220 C.ar  192  HIS192      0.1986
     38  NE2      -21.9150  111.0100   39.7610 N.ar  192  HIS192     -0.2212
     39  N        -19.2070  108.3620   39.7850 N.3   194  SER194     -0.1217
     40  CA       -19.8580  107.1040   40.1300 C.3   194  SER194      0.1889
     41  C        -19.0960  105.9100   39.5690 C.2   194  SER194      0.2288
     42  O        -19.1920  104.7950   40.0910 O.2   194  SER194     -0.2866
     43  CB       -21.3010  107.0780   39.6070 C.3   194  SER194      0.2089
     44  OG       -21.3580  107.2540   38.2010 O.3   194  SER194     -0.2183
     45  N        -20.2070  107.5520   28.1430 N.3   242  THR242     -0.1203
     46  CA       -21.1020  108.5670   28.6800 C.3   242  THR242      0.1994
     47  C        -21.7690  109.4250   27.6210 C.2   242  THR242      0.2618
     48  O        -21.1140  109.8930   26.6860 O.2   242  THR242     -0.2717
     49  CB       -20.3520  109.5040   29.6340 C.3   242  THR242      0.1784
     50  OG1      -19.7400  108.7360   30.6700 O.3   242  THR242     -0.2211
     51  CG2      -21.3100  110.5100   30.2540 C.3   242  THR242      0.0376
     52  N        -23.0710  109.6240   27.7880 N.am  243  LEU243     -0.1965
     53  CA       -23.8860  110.4430   26.8930 C.3   243  LEU243      0.1728
     54  C        -24.4670  111.6270   27.6900 C.2   243  LEU243      0.2617
     55  O        -25.5170  111.5180   28.3260 O.2   243  LEU243     -0.2715
     56  CB       -25.0170  109.6020   26.3200 C.3   243  LEU243      0.0311
     57  CG       -24.8250  108.9250   24.9600 C.3   243  LEU243      0.0022
     58  CD1      -23.4340  108.3560   24.8220 C.3   243  LEU243      0.0001
     59  CD2      -25.8840  107.8410   24.8040 C.3   243  LEU243      0.0001
     60  N        -23.7690  112.7580   27.6440 N.am  244  GLY244     -0.1940
     61  CA       -24.1920  113.9310   28.3790 C.3   244  GLY244      0.2014
     62  C        -23.3320  114.0890   29.6220 C.2   244  GLY244      0.2640
     63  O        -23.8590  114.1160   30.7320 O.2   244  GLY244     -0.2714
     64  N        -22.0140  114.1840   29.4440 N.am  245  THR245     -0.1936
     65  CA       -21.1010  114.3400   30.5730 C.3   245  THR245      0.2028
     66  C        -21.5440  115.4990   31.4650 C.2   245  THR245      0.2642
     67  O        -22.1540  116.4660   30.9970 O.2   245  THR245     -0.2714
     68  CB       -19.6290  114.5610   30.0960 C.3   245  THR245      0.1808
     69  OG1      -19.5450  115.7240   29.2670 O.3   245  THR245     -0.2208
     70  CG2      -19.1480  113.3660   29.2830 C.3   245  THR245      0.0379
     71  N        -21.2460  115.3960   32.7550 N.am  246  THR246     -0.1950
     72  CA       -21.6580  116.4220   33.7010 C.3   246  THR246      0.1897
     73  C        -20.9050  117.7300   33.5200 C.2   246  THR246      0.2313
     74  O        -21.4290  118.7970   33.8500 O.2   246  THR246     -0.2863
     75  CB       -21.5000  115.9400   35.1630 C.3   246  THR246      0.1794
     76  OG1      -20.1360  115.5860   35.3980 O.3   246  THR246     -0.2208
     77  CG2      -22.3710  114.7250   35.4280 C.3   246  THR246      0.0378
     78  N        -23.8660  105.1510   30.2410 N.3   271  ASP271     -0.1239
     79  CA       -24.3980  106.0360   31.2820 C.3   271  ASP271      0.1674
     80  C        -24.8720  107.3360   30.6320 C.2   271  ASP271      0.2266
     81  O        -24.0540  108.1820   30.2460 O.2   271  ASP271     -0.2867
     82  CB       -23.3210  106.3460   32.3320 C.3   271  ASP271      0.1410
     83  CG       -23.6820  107.5330   33.2280 C.2   271  ASP271      0.3668
     84  OD1      -24.8120  108.0570   33.1390 O.co2 271  ASP271     -0.2456
     85  OD2      -22.8240  107.9490   34.0360 O.co2 271  ASP271     -0.2456
     86  N        -27.3070  109.2730   32.2140 N.3   273  ALA273     -0.1231
     87  CA       -28.1280  109.7760   33.3240 C.3   273  ALA273      0.1694
     88  C        -28.9790  111.0050   33.0550 C.2   273  ALA273      0.2592
     89  O        -30.1720  111.0120   33.3310 O.2   273  ALA273     -0.2718
     90  CB       -27.2690  110.0290   34.5250 C.3   273  ALA273      0.0304
     91  N        -28.3590  112.0460   32.5200 N.am  274  TYR274     -0.1976
     92  CA       -29.0650  113.2820   32.2400 C.3   274  TYR274      0.1639
     93  C        -29.6480  113.3690   30.8410 C.2   274  TYR274      0.2290
     94  O        -30.8560  113.5160   30.6870 O.2   274  TYR274     -0.2864
     95  CB       -28.1300  114.4710   32.4650 C.3   274  TYR274      0.0560
     96  CG       -28.6790  115.7650   31.9220 C.ar  274  TYR274     -0.0198
     97  CD1      -29.8120  116.3500   32.4790 C.ar  274  TYR274     -0.0009
     98  CD2      -28.1060  116.3750   30.8000 C.ar  274  TYR274     -0.0009
     99  CE1      -30.3690  117.5090   31.9270 C.ar  274  TYR274      0.0417
    100  CE2      -28.6600  117.5400   30.2440 C.ar  274  TYR274      0.0417
    101  CZ       -29.7870  118.0910   30.8150 C.ar  274  TYR274      0.1957
    102  OH       -30.3470  119.2190   30.2760 O.3   274  TYR274     -0.2866
    103  N        -31.5230  108.6470   33.9930 N.3   300  ASN300     -0.1240
    104  CA       -32.3570  109.0000   35.1380 C.3   300  ASN300      0.1653
    105  C        -33.6560  109.7510   34.8960 C.2   300  ASN300      0.2266
    106  O        -33.6480  110.9440   34.5790 O.2   300  ASN300     -0.2867
    107  CB       -31.5570  109.8150   36.1620 C.3   300  ASN300      0.1155
    108  CG       -30.5130  109.0120   36.8360 C.2   300  ASN300      0.2627
    109  OD1      -30.7120  107.8280   37.1070 O.2   300  ASN300     -0.2716
    110  ND2      -29.3830  109.6390   37.1280 N.am  300  ASN300     -0.0877
    111  N        -35.4480  110.5680   37.0820 N.3   302  HIS302     -0.1226
    112  CA       -35.5240  111.4650   38.2300 C.3   302  HIS302      0.1752
    113  C        -34.6340  112.6810   38.0590 C.2   302  HIS302      0.2595
    114  O        -34.4270  113.4690   38.9910 O.2   302  HIS302     -0.2718
    115  CB       -35.2700  110.7310   39.5770 C.3   302  HIS302      0.0759
    116  CG       -33.8740  110.2300   39.7830 C.ar  302  HIS302      0.0818
    117  ND1      -33.6090  109.0500   40.4490 N.ar  302  HIS302     -0.2268
    118  CD2      -32.6670  110.7730   39.4850 C.ar  302  HIS302      0.1154
    119  CE1      -32.3000  108.8890   40.5520 C.ar  302  HIS302      0.1986
    120  NE2      -31.7050  109.9200   39.9750 N.ar  302  HIS302     -0.2212
    121  N        -34.1000  112.8390   36.8550 N.am  303  LYS303     -0.1980
    122  CA       -33.3210  114.0290   36.5670 C.3   303  LYS303      0.1596
    123  C        -34.1260  114.9160   35.6320 C.2   303  LYS303      0.2287
    124  O        -34.7360  115.8960   36.0610 O.2   303  LYS303     -0.2864
    125  CB       -31.9780  113.7060   35.9230 C.3   303  LYS303      0.0298
    126  CG       -30.8640  113.6840   36.9400 C.3   303  LYS303      0.0038
    127  CD       -29.4970  113.7550   36.3140 C.3   303  LYS303      0.0206
    128  CE       -28.4470  113.6360   37.4050 C.3   303  LYS303      0.1093
    129  NZ       -27.1010  113.5130   36.8200 N.3   303  LYS303     -0.1314
    130  N        -37.2550  112.0080   42.5110 N.3   309  PHE309     -0.1241
    131  CA       -36.1310  111.1730   42.9200 C.3   309  PHE309      0.1605
    132  C        -36.4390  109.8950   43.6170 C.2   309  PHE309      0.2264
    133  O        -37.2690  109.8060   44.5410 O.2   309  PHE309     -0.2867
    134  CB       -35.1070  111.8950   43.7750 C.3   309  PHE309      0.0534
    135  CG       -33.9400  111.0170   44.1670 C.ar  309  PHE309     -0.0203
    136  CD1      -33.9170  110.3670   45.3910 C.ar  309  PHE309     -0.0042
    137  CD2      -32.8720  110.8200   43.2890 C.ar  309  PHE309     -0.0042
    138  CE1      -32.8360  109.5210   45.7500 C.ar  309  PHE309     -0.0003
    139  CE2      -31.7900  109.9830   43.6320 C.ar  309  PHE309     -0.0003
    140  CZ       -31.7740  109.3330   44.8690 C.ar  309  PHE309     -0.0000
@<TRIPOS>BOND
     1    59    57    1
     2    58    57    1
     3    57    56    1
     4    56    53    1
     5    48    47    2
     6    53    54    1
     7    53    52    1
     8    47    52   am
     9    47    46    1
    10    60    54   am
    11    60    61    1
    12    54    55    2
    13    45    46    1
    14    61    62    1
    15    46    49    1
    16    69    68    1
    17    70    68    1
    18    64    62   am
    19    64    65    1
    20    62    63    2
    21    49    51    1
    22    49    50    1
    23    68    65    1
    24    78    79    1
    25   100    98   ar
    26   100   101   ar
    27    81    80    2
    28   102   101    1
    29    65    66    1
    30    80    79    1
    31    94    93    2
    32    98    96   ar
    33   101    99   ar
    34    93    92    1
    35    67    66    2
    36    79    82    1
    37    66    71   am
    38    96    95    1
    39    96    97   ar
    40    99    97   ar
    41    86    87    1
    42    92    95    1
    43    92    91    1
    44    82    83    1
    45    91    88   am
    46    11    10   ar
    47    11     9   ar
    48    10     8   ar
    49    71    72    1
    50    88    87    1
    51    88    89    2
    52    84    83   ar
    53    83    85   ar
    54    87    90    1
    55    73    72    1
    56    73    74    2
    57     9     7   ar
    58     8     6   ar
    59    72    75    1
    60   103   104    1
    61   106   105    2
    62     7     6   ar
    63     6     5    1
    64   105   104    1
    65    29    30    1
    66   104   107    1
    67    75    76    1
    68    75    77    1
    69   123   124    2
    70   123   122    1
    71     5     2    1
    72   125   122    1
    73   125   126    1
    74   107   108    1
    75   127   126    1
    76   127   128    1
    77    30    33    1
    78    30    31    1
    79     2     3    1
    80     2     1    1
    81    33    34    1
    82   122   121    1
    83   129   128    1
    84   108   109    2
    85   108   110   am
    86   121   113   am
    87   111   112    1
    88    32    31    2
    89     3     4    2
    90    22    19    1
    91    34    35   ar
    92    34    36   ar
    93    35    37   ar
    94    21    20    2
    95    19    20    1
    96    19    18    1
    97   113   112    1
    98   113   114    2
    99    44    43    1
   100   112   115    1
   101    20    23   am
   102    36    38   ar
   103    18    14   am
   104    37    38   ar
   105   118   116   ar
   106   118   120   ar
   107    41    42    2
   108    41    40    1
   109   115   116    1
   110    43    40    1
   111   116   117   ar
   112    39    40    1
   113    23    24    1
   114    15    14    2
   115    14    13    1
   116   120   119   ar
   117    24    25    1
   118    24    27    1
   119   117   119   ar
   120    26    25    2
   121    13    12    1
   122    13    16    1
   123    28    27    1
   124    16    17    1
   125   130   131    1
   126   131   132    1
   127   131   134    1
   128   137   139   ar
   129   137   135   ar
   130   132   133    2
   131   139   140   ar
   132   134   135    1
   133   135   136   ar
   134   140   138   ar
   135   136   138   ar
