@<TRIPOS>MOLECULE
tmp/1js8B00.pdb
 88 85 0 0 0
SMALL
GASTEIGER

@<TRIPOS>ATOM
      1  N         46.9310   17.8170   61.4850 N.3   292  ARG292     -0.1231
      2  CA        46.5490   17.3770   62.8240 C.3   292  ARG292      0.1694
      3  C         45.1460   16.7760   62.7390 C.2   292  ARG292      0.2593
      4  O         44.4350   17.0120   61.7600 O.2   292  ARG292     -0.2718
      5  CB        46.5780   18.5650   63.8140 C.3   292  ARG292      0.0321
      6  CG        45.5790   19.6930   63.4970 C.3   292  ARG292      0.0489
      7  CD        45.8260   20.9950   64.2670 C.3   292  ARG292      0.2205
      8  NE        45.4930   21.0140   65.7000 N.pl3 292  ARG292     -0.0865
      9  CZ        46.3870   20.9610   66.6920 C.cat 292  ARG292      0.5346
     10  NH1       47.6550   20.8510   66.4060 N.pl3 292  ARG292      0.1354
     11  NH2       46.0540   21.1520   67.9640 N.pl3 292  ARG292      0.1354
     12  N         44.7630   15.9790   63.7330 N.am  293  THR293     -0.1939
     13  CA        43.4440   15.3550   63.7670 C.3   293  THR293      0.2028
     14  C         42.2840   16.2700   63.3780 C.2   293  THR293      0.2642
     15  O         42.1710   17.3780   63.9010 O.2   293  THR293     -0.2714
     16  CB        43.0900   14.9470   65.1920 C.3   293  THR293      0.1808
     17  OG1       44.2580   14.5300   65.8860 O.3   293  THR293     -0.2208
     18  CG2       42.1290   13.8230   65.1780 C.3   293  THR293      0.0379
     19  N         41.3690   15.7810   62.5470 N.am  294  ILE294     -0.1963
     20  CA        40.1820   16.5610   62.1860 C.3   294  ILE294      0.1727
     21  C         38.9280   15.7190   62.5060 C.2   294  ILE294      0.2617
     22  O         37.8000   16.0710   62.1270 O.2   294  ILE294     -0.2715
     23  CB        40.1810   16.9990   60.7140 C.3   294  ILE294      0.0290
     24  CG1       40.3140   15.7930   59.7950 C.3   294  ILE294      0.0022
     25  CG2       41.3250   17.9480   60.4530 C.3   294  ILE294      0.0023
     26  CD1       40.1480   16.1700   58.3440 C.3   294  ILE294      0.0001
     27  N         39.1570   14.5740   63.1680 N.am  295  GLY295     -0.1940
     28  CA        38.0990   13.6670   63.5960 C.3   295  GLY295      0.2014
     29  C         37.2990   13.0450   62.4820 C.2   295  GLY295      0.2638
     30  O         36.1170   12.7160   62.6710 O.2   295  GLY295     -0.2714
     31  N         37.9240   12.9040   61.3130 N.am  296  GLN296     -0.1977
     32  CA        37.2730   12.3250   60.1410 C.3   296  GLN296      0.1601
     33  C         38.2940   12.1940   59.0380 C.2   296  GLN296      0.2287
     34  O         39.4290   12.6730   59.1640 O.2   296  GLN296     -0.2864
     35  CB        36.1240   13.2090   59.6670 C.3   296  GLN296      0.0394
     36  CG        36.5420   14.6230   59.2830 C.3   296  GLN296      0.0908
     37  CD        35.3780   15.6000   59.3070 C.2   296  GLN296      0.2608
     38  OE1       34.4260   15.4520   58.5670 O.2   296  GLN296     -0.2717
     39  NE2       35.4430   16.5880   60.1730 N.am  296  GLN296     -0.0878
     40  N         35.7080    9.2880   64.0580 N.3   323  GLU323     -0.1245
     41  CA        35.2860    9.6130   65.4010 C.3   323  GLU323      0.1567
     42  C         36.0070    8.6560   66.3550 C.2   323  GLU323      0.2260
     43  O         36.2400    7.4990   66.0180 O.2   323  GLU323     -0.2867
     44  CB        33.7910    9.3560   65.4680 C.3   323  GLU323      0.0388
     45  CG        33.0610   10.0690   66.5750 C.3   323  GLU323      0.1160
     46  CD        31.5460    9.9530   66.4380 C.2   323  GLU323      0.3649
     47  OE1       31.0660    9.6850   65.3040 O.co2 323  GLU323     -0.2457
     48  OE2       30.8500   10.1210   67.4790 O.co2 323  GLU323     -0.2457
     49  N         44.0630   11.5780   69.6070 N.3   327  PHE327     -0.1241
     50  CA        44.6120   12.8470   69.1670 C.3   327  PHE327      0.1605
     51  C         45.9780   12.6430   68.5220 C.2   327  PHE327      0.2264
     52  O         46.8200   11.8870   69.0390 O.2   327  PHE327     -0.2867
     53  CB        44.7660   13.8140   70.3500 C.3   327  PHE327      0.0534
     54  CG        45.4790   15.0850   69.9870 C.ar  327  PHE327     -0.0203
     55  CD1       44.7810   16.1540   69.4230 C.ar  327  PHE327     -0.0042
     56  CD2       46.8610   15.1790   70.1200 C.ar  327  PHE327     -0.0042
     57  CE1       45.4560   17.2910   68.9880 C.ar  327  PHE327     -0.0003
     58  CE2       47.5490   16.3120   69.6850 C.ar  327  PHE327     -0.0003
     59  CZ        46.8450   17.3740   69.1150 C.ar  327  PHE327     -0.0000
     60  N         34.7480   20.8300   53.6840 N.3   367  LEU367     -0.1245
     61  CA        34.9850   21.1170   55.0810 C.3   367  LEU367      0.1561
     62  C         35.6660   22.4660   55.2020 C.2   367  LEU367      0.2260
     63  O         36.2370   22.9920   54.2480 O.2   367  LEU367     -0.2867
     64  CB        35.8550   20.0280   55.7220 C.3   367  LEU367      0.0270
     65  CG        35.3030   18.6050   55.6430 C.3   367  LEU367      0.0019
     66  CD1       36.3340   17.6200   56.2050 C.3   367  LEU367      0.0001
     67  CD2       33.9910   18.5250   56.4040 C.3   367  LEU367      0.0001
     68  N         39.6200   25.9240   57.9170 N.3   370  LYS370     -0.1231
     69  CA        40.0890   26.2310   59.2360 C.3   370  LYS370      0.1693
     70  C         40.7940   25.0100   59.8720 C.2   370  LYS370      0.2592
     71  O         41.4790   25.1290   60.8980 O.2   370  LYS370     -0.2718
     72  CB        38.8390   26.5490   60.0350 C.3   370  LYS370      0.0285
     73  CG        38.7750   27.8780   60.7640 C.3   370  LYS370      0.0035
     74  CD        37.7370   27.7790   61.8960 C.3   370  LYS370      0.0206
     75  CE        38.1720   26.6600   62.9050 C.3   370  LYS370      0.1093
     76  NZ        38.6650   25.3250   62.3300 N.3   370  LYS370     -0.1314
     77  N         40.4880   23.8190   59.3640 N.am  371  TYR371     -0.1976
     78  CA        41.0890   22.5810   59.8700 C.3   371  TYR371      0.1639
     79  C         42.5840   22.5650   59.5650 C.2   371  TYR371      0.2290
     80  O         43.3870   22.0820   60.3580 O.2   371  TYR371     -0.2864
     81  CB        40.4230   21.3630   59.2190 C.3   371  TYR371      0.0560
     82  CG        39.0980   20.9500   59.8430 C.ar  371  TYR371     -0.0198
     83  CD1       38.9410   20.9020   61.2370 C.ar  371  TYR371     -0.0009
     84  CD2       38.0140   20.5740   59.0460 C.ar  371  TYR371     -0.0009
     85  CE1       37.7640   20.4440   61.8180 C.ar  371  TYR371      0.0417
     86  CE2       36.8370   20.1170   59.6180 C.ar  371  TYR371      0.0417
     87  CZ        36.7030   20.0690   61.0060 C.ar  371  TYR371      0.1957
     88  OH        35.5150   19.5970   61.5670 O.3   371  TYR371     -0.2866
@<TRIPOS>BOND
     1    60    61    1
     2    63    62    2
     3    61    62    1
     4    61    64    1
     5    65    64    1
     6    65    66    1
     7    65    67    1
     8    68    69    1
     9    26    24    1
    10    38    37    2
    11    33    34    2
    12    33    32    1
    13    84    86   ar
    14    84    82   ar
    15    81    82    1
    16    81    78    1
    17    69    70    1
    18    69    72    1
    19    36    37    1
    20    36    35    1
    21    37    39   am
    22    77    78    1
    23    77    70   am
    24    79    78    1
    25    79    80    2
    26    86    87   ar
    27    35    32    1
    28    24    23    1
    29    82    83   ar
    30    70    71    2
    31    72    73    1
    32    32    31    1
    33    25    23    1
    34    23    20    1
    35    73    74    1
    36    87    88    1
    37    87    85   ar
    38    83    85   ar
    39    31    29   am
    40     1     2    1
    41     4     3    2
    42    74    75    1
    43    22    21    2
    44    20    21    1
    45    20    19    1
    46    76    75    1
    47    29    30    2
    48    29    28    1
    49    21    27   am
    50    19    14   am
    51     3     2    1
    52     3    12   am
    53     2     5    1
    54    27    28    1
    55    14    13    1
    56    14    15    2
    57     6     5    1
    58     6     7    1
    59    12    13    1
    60    13    16    1
    61    40    41    1
    62     7     8    1
    63    18    16    1
    64    16    17    1
    65    47    46   ar
    66    41    44    1
    67    41    42    1
    68    44    45    1
    69     8     9    2
    70    43    42    2
    71    10     9    1
    72    46    45    1
    73    46    48   ar
    74     9    11    1
    75    51    52    2
    76    51    50    1
    77    57    59   ar
    78    57    55   ar
    79    59    58   ar
    80    50    49    1
    81    50    53    1
    82    55    54   ar
    83    58    56   ar
    84    54    56   ar
    85    54    53    1
