@<TRIPOS>MOLECULE
tmp/1js8A00.pdb
 134 130 0 0 0
SMALL
GASTEIGER

@<TRIPOS>ATOM
      1  N         41.0600   44.0310   56.5590 N.3    49  TYR49      -0.1241
      2  CA        40.8160   42.8510   55.7880 C.3    49  TYR49       0.1605
      3  C         39.9810   43.3420   54.5890 C.2    49  TYR49       0.2264
      4  O         39.3910   44.4080   54.6440 O.2    49  TYR49      -0.2867
      5  CB        40.0250   41.8520   56.6600 C.3    49  TYR49       0.0534
      6  CG        40.8290   41.1440   57.7550 C.ar   49  TYR49      -0.0201
      7  CD1       42.0420   40.5070   57.4620 C.ar   49  TYR49      -0.0009
      8  CD2       40.3680   41.0900   59.0670 C.ar   49  TYR49      -0.0009
      9  CE1       42.7770   39.8410   58.4430 C.ar   49  TYR49       0.0417
     10  CE2       41.0930   40.4260   60.0550 C.ar   49  TYR49       0.0417
     11  CZ        42.3000   39.8040   59.7340 C.ar   49  TYR49       0.1957
     12  OH        43.0570   39.1820   60.6960 O.3    49  TYR49      -0.2866
     13  N         37.2390   42.7310   53.7500 N.3    51  ASN51      -0.1240
     14  CA        35.8780   42.9440   54.1730 C.3    51  ASN51       0.1653
     15  C         35.6510   44.1020   55.1200 C.2    51  ASN51       0.2266
     16  O         34.5770   44.2430   55.6970 O.2    51  ASN51      -0.2867
     17  CB        35.2980   41.6220   54.7140 C.3    51  ASN51       0.1155
     18  CG        35.8850   41.2110   56.0540 C.2    51  ASN51       0.2627
     19  OD1       36.8030   41.8130   56.5770 O.2    51  ASN51      -0.2716
     20  ND2       35.1820   40.2390   56.6580 N.am   51  ASN51      -0.0877
     21  N         37.0540   44.6450   57.9870 N.3    53  THR53      -0.1218
     22  CA        37.3560   44.4260   59.3770 C.3    53  THR53       0.1862
     23  C         38.8350   44.7080   59.6090 C.2    53  THR53       0.2287
     24  O         39.6970   44.2800   58.8480 O.2    53  THR53      -0.2866
     25  CB        36.9780   43.0160   59.8430 C.3    53  THR53       0.1770
     26  OG1       35.5910   42.7850   59.5950 O.3    53  THR53      -0.2211
     27  CG2       37.2150   42.8800   61.3280 C.3    53  THR53       0.0375
     28  N         50.4200   28.4550   67.9530 N.3   292  ARG292     -0.1231
     29  CA        49.4700   29.1500   67.0760 C.3   292  ARG292      0.1694
     30  C         48.7230   30.2150   67.9120 C.2   292  ARG292      0.2593
     31  O         48.7590   30.1860   69.1450 O.2   292  ARG292     -0.2718
     32  CB        48.4650   28.1600   66.4380 C.3   292  ARG292      0.0321
     33  CG        47.8750   27.1620   67.4130 C.3   292  ARG292      0.0489
     34  CD        46.6160   26.4840   66.8950 C.3   292  ARG292      0.2205
     35  NE        46.7450   25.9000   65.5620 N.pl3 292  ARG292     -0.0865
     36  CZ        46.0700   26.3100   64.4990 C.cat 292  ARG292      0.5346
     37  NH1       45.2460   27.2950   64.6250 N.pl3 292  ARG292      0.1354
     38  NH2       46.1780   25.7410   63.3170 N.pl3 292  ARG292      0.1354
     39  N         48.0580   31.1420   67.2340 N.am  293  THR293     -0.1939
     40  CA        47.2980   32.2120   67.8770 C.3   293  THR293      0.2028
     41  C         46.3730   31.7480   68.9690 C.2   293  THR293      0.2642
     42  O         45.5960   30.8170   68.7770 O.2   293  THR293     -0.2714
     43  CB        46.3040   32.8720   66.9150 C.3   293  THR293      0.1808
     44  OG1       46.7830   32.8120   65.5780 O.3   293  THR293     -0.2208
     45  CG2       46.1120   34.2810   67.2900 C.3   293  THR293      0.0379
     46  N         46.3580   32.4680   70.0720 N.am  294  ILE294     -0.1963
     47  CA        45.4310   32.1460   71.1340 C.3   294  ILE294      0.1727
     48  C         44.5990   33.3960   71.4790 C.2   294  ILE294      0.2617
     49  O         43.8440   33.4040   72.4440 O.2   294  ILE294     -0.2715
     50  CB        46.1580   31.5840   72.3650 C.3   294  ILE294      0.0290
     51  CG1       47.1670   32.5860   72.8970 C.3   294  ILE294      0.0022
     52  CG2       46.8870   30.2780   71.9930 C.3   294  ILE294      0.0023
     53  CD1       47.7500   32.1820   74.1990 C.3   294  ILE294      0.0001
     54  N         44.7560   34.4480   70.6650 N.am  295  GLY295     -0.1940
     55  CA        44.0350   35.7030   70.8290 C.3   295  GLY295      0.2014
     56  C         44.3430   36.4890   72.0940 C.2   295  GLY295      0.2638
     57  O         43.5140   37.2480   72.5770 O.2   295  GLY295     -0.2714
     58  N         45.5260   36.2820   72.6570 N.am  296  GLN296     -0.1977
     59  CA        45.9220   36.9620   73.8760 C.3   296  GLN296      0.1601
     60  C         47.3890   36.6610   74.1630 C.2   296  GLN296      0.2287
     61  O         48.0060   35.8900   73.4420 O.2   296  GLN296     -0.2864
     62  CB        45.0270   36.5040   75.0360 C.3   296  GLN296      0.0394
     63  CG        45.1440   35.0140   75.3890 C.3   296  GLN296      0.0908
     64  CD        43.8810   34.4290   75.9720 C.2   296  GLN296      0.2608
     65  OE1       43.2150   33.6910   75.3380 O.2   296  GLN296     -0.2717
     66  NE2       43.5730   34.7480   77.1770 N.am  296  GLN296     -0.0878
     67  N         43.5060   40.6030   71.1930 N.3   323  GLU323     -0.1231
     68  CA        42.3200   40.5810   70.3740 C.3   323  GLU323      0.1699
     69  C         42.6100   41.3450   69.0740 C.2   323  GLU323      0.2592
     70  O         43.3050   42.3760   69.0880 O.2   323  GLU323     -0.2718
     71  CB        41.2190   41.2880   71.1570 C.3   323  GLU323      0.0402
     72  CG        39.7990   40.9480   70.7690 C.3   323  GLU323      0.1161
     73  CD        38.7680   41.6640   71.6280 C.2   323  GLU323      0.3649
     74  OE1       39.0770   42.0280   72.7900 O.co2 323  GLU323     -0.2457
     75  OE2       37.6460   41.8680   71.1190 O.co2 323  GLU323     -0.2457
     76  N         42.0750   40.8440   67.9610 N.am  324  HIS324     -0.1962
     77  CA        42.2230   41.4610   66.6410 C.3   324  HIS324      0.1787
     78  C         43.5900   41.2260   66.0170 C.2   324  HIS324      0.2620
     79  O         43.9180   41.8580   65.0050 O.2   324  HIS324     -0.2715
     80  CB        41.9060   42.9840   66.6500 C.3   324  HIS324      0.0785
     81  CG        40.6240   43.3540   67.3390 C.ar  324  HIS324      0.0821
     82  ND1       40.5930   44.1480   68.4680 N.ar  324  HIS324     -0.2267
     83  CD2       39.3420   42.9840   67.1080 C.ar  324  HIS324      0.1154
     84  CE1       39.3540   44.2360   68.9130 C.ar  324  HIS324      0.1986
     85  NE2       38.5770   43.5390   68.1040 N.ar  324  HIS324     -0.2212
     86  N         44.4160   40.3680   66.6200 N.am  325  GLU325     -0.1977
     87  CA        45.7110   40.0770   65.9970 C.3   325  GLU325      0.1602
     88  C         45.3900   39.2520   64.7730 C.2   325  GLU325      0.2287
     89  O         44.3180   38.6430   64.7060 O.2   325  GLU325     -0.2864
     90  CB        46.6420   39.2820   66.9160 C.3   325  GLU325      0.0415
     91  CG        46.1530   37.9240   67.3640 C.3   325  GLU325      0.1163
     92  CD        47.0610   37.3220   68.4130 C.2   325  GLU325      0.3649
     93  OE1       47.9560   36.5670   68.0620 O.co2 325  GLU325     -0.2457
     94  OE2       46.9170   37.5870   69.6070 O.co2 325  GLU325     -0.2457
     95  N         45.7110   36.0920   62.2440 N.3   327  PHE327     -0.1241
     96  CA        45.9140   34.6770   62.4690 C.3   327  PHE327      0.1605
     97  C         47.3740   34.3120   62.2320 C.2   327  PHE327      0.2264
     98  O         48.0200   34.8130   61.2980 O.2   327  PHE327     -0.2867
     99  CB        45.0350   33.8690   61.5070 C.3   327  PHE327      0.0534
    100  CG        45.3290   32.3920   61.5150 C.ar  327  PHE327     -0.0203
    101  CD1       44.7980   31.5730   62.5060 C.ar  327  PHE327     -0.0042
    102  CD2       46.2370   31.8480   60.6140 C.ar  327  PHE327     -0.0042
    103  CE1       45.1780   30.2360   62.6040 C.ar  327  PHE327     -0.0003
    104  CE2       46.6230   30.5180   60.7070 C.ar  327  PHE327     -0.0003
    105  CZ        46.0930   29.7120   61.7080 C.ar  327  PHE327     -0.0000
    106  N         44.8690   29.3430   81.6220 N.3   367  LEU367     -0.1245
    107  CA        44.1690   29.1730   80.3600 C.3   367  LEU367      0.1561
    108  C         44.1410   27.6780   80.0430 C.2   367  LEU367      0.2260
    109  O         45.0360   26.9280   80.4270 O.2   367  LEU367     -0.2867
    110  CB        44.8960   29.9400   79.2510 C.3   367  LEU367      0.0270
    111  CG        45.0510   31.4340   79.5000 C.3   367  LEU367      0.0019
    112  CD1       45.7750   32.0970   78.3620 C.3   367  LEU367      0.0001
    113  CD2       43.6780   32.0440   79.6660 C.3   367  LEU367      0.0001
    114  N         44.1450   23.3190   76.1250 N.3   370  LYS370     -0.1231
    115  CA        43.6450   23.0750   74.7900 C.3   370  LYS370      0.1693
    116  C         44.3310   23.9690   73.7480 C.2   370  LYS370      0.2592
    117  O         44.2870   23.6930   72.5500 O.2   370  LYS370     -0.2718
    118  CB        42.1780   23.4710   74.7610 C.3   370  LYS370      0.0285
    119  CG        41.1430   22.3820   74.9530 C.3   370  LYS370      0.0035
    120  CD        39.7860   22.8550   74.3530 C.3   370  LYS370      0.0206
    121  CE        40.0400   23.4860   72.9680 C.3   370  LYS370      0.1093
    122  NZ        41.0370   22.6610   72.2180 N.3   370  LYS370     -0.1314
    123  N         44.8130   25.1240   74.2030 N.am  371  TYR371     -0.1976
    124  CA        45.4510   26.0840   73.3100 C.3   371  TYR371      0.1639
    125  C         46.7250   25.5590   72.6900 C.2   371  TYR371      0.2290
    126  O         47.0520   25.8700   71.5440 O.2   371  TYR371     -0.2864
    127  CB        45.7320   27.3900   74.0470 C.3   371  TYR371      0.0560
    128  CG        44.5110   28.2840   74.2130 C.ar  371  TYR371     -0.0198
    129  CD1       43.7100   28.6300   73.1110 C.ar  371  TYR371     -0.0009
    130  CD2       44.1840   28.8280   75.4540 C.ar  371  TYR371     -0.0009
    131  CE1       42.6040   29.5010   73.2460 C.ar  371  TYR371      0.0417
    132  CE2       43.0870   29.6990   75.5980 C.ar  371  TYR371      0.0417
    133  CZ        42.3090   30.0350   74.4900 C.ar  371  TYR371      0.1957
    134  OH        41.2520   30.9070   74.6290 O.3   371  TYR371     -0.2866
@<TRIPOS>BOND
     1    13    14    1
     2    14    17    1
     3    14    15    1
     4     3     4    2
     5     3     2    1
     6    17    18    1
     7    15    16    2
     8     2     1    1
     9     2     5    1
    10    18    19    2
    11    18    20   am
    12     5     6    1
    13     7     6   ar
    14     7     9   ar
    15     6     8   ar
    16    21    22    1
    17     9    11   ar
    18    24    23    2
    19     8    10   ar
    20    22    23    1
    21    22    25    1
    22    26    25    1
    23    11    10   ar
    24    11    12    1
    25    25    27    1
    26   102   104   ar
    27   102   100   ar
    28   104   105   ar
    29    98    97    2
    30    99   100    1
    31    99    96    1
    32   100   101   ar
    33   105   103   ar
    34    97    96    1
    35    95    96    1
    36   101   103   ar
    37    38    36    1
    38    36    37    1
    39    36    35    2
    40    89    88    2
    41    88    87    1
    42    79    78    2
    43    35    34    1
    44    44    43    1
    45    87    86    1
    46    87    90    1
    47    78    86   am
    48    78    77    1
    49    32    29    1
    50    32    33    1
    51    77    80    1
    52    77    76    1
    53    80    81    1
    54    34    33    1
    55    43    45    1
    56    43    40    1
    57    90    91    1
    58    29    30    1
    59    29    28    1
    60    83    81   ar
    61    83    85   ar
    62    39    40    1
    63    39    30   am
    64    81    82   ar
    65    91    92    1
    66    40    41    1
    67    30    31    2
    68    76    69   am
    69    93    92   ar
    70    85    84   ar
    71    92    94   ar
    72    82    84   ar
    73    42    41    2
    74    41    46   am
    75    69    70    2
    76    69    68    1
    77    46    47    1
    78    68    71    1
    79    68    67    1
    80    54    55    1
    81    54    48   am
    82    72    71    1
    83    72    73    1
    84    55    56    1
    85    75    73   ar
    86    47    48    1
    87    47    50    1
    88    48    49    2
    89   126   125    2
    90    73    74   ar
    91    52    50    1
    92    56    57    2
    93    56    58   am
    94   122   121    1
    95    50    51    1
    96   117   116    2
    97    58    59    1
    98   125   124    1
    99    51    53    1
   100   121   120    1
   101   129   131   ar
   102   129   128   ar
   103   131   133   ar
   104   124   127    1
   105   124   123    1
   106    61    60    2
   107   116   123   am
   108   116   115    1
   109    59    60    1
   110    59    62    1
   111   127   128    1
   112   128   130   ar
   113   120   119    1
   114   133   134    1
   115   133   132   ar
   116   118   115    1
   117   118   119    1
   118   115   114    1
   119    62    63    1
   120    65    64    2
   121    63    64    1
   122   130   132   ar
   123    64    66   am
   124   112   111    1
   125   110   111    1
   126   110   107    1
   127   111   113    1
   128   108   107    1
   129   108   109    2
   130   107   106    1
