@<TRIPOS>MOLECULE
tmp/1jshA03.pdb
 127 124 0 0 0
SMALL
GASTEIGER

@<TRIPOS>ATOM
      1  N         31.4640   36.1300  -37.0470 N.3    91  TYR91      -0.1241
      2  CA        31.9810   35.4790  -38.2450 C.3    91  TYR91       0.1605
      3  C         33.0210   34.4650  -37.7710 C.2    91  TYR91       0.2264
      4  O         33.9460   34.8170  -37.0390 O.2    91  TYR91      -0.2867
      5  CB        32.6270   36.4960  -39.1960 C.3    91  TYR91       0.0534
      6  CG        32.7870   35.9640  -40.6090 C.ar   91  TYR91      -0.0201
      7  CD1       31.8510   36.2600  -41.5980 C.ar   91  TYR91      -0.0009
      8  CD2       33.8320   35.0920  -40.9330 C.ar   91  TYR91      -0.0009
      9  CE1       31.9440   35.6990  -42.8710 C.ar   91  TYR91       0.0417
     10  CE2       33.9360   34.5220  -42.2030 C.ar   91  TYR91       0.0417
     11  CZ        32.9870   34.8270  -43.1670 C.ar   91  TYR91       0.1957
     12  OH        33.0710   34.2420  -44.4150 O.3    91  TYR91      -0.2866
     13  N         31.3020   45.4600  -46.8230 N.3   128  GLY128     -0.1210
     14  CA        30.9690   44.0480  -46.8310 C.3   128  GLY128      0.1956
     15  C         30.2990   43.6510  -45.5290 C.2   128  GLY128      0.2613
     16  O         30.6290   44.1760  -44.4640 O.2   128  GLY128     -0.2717
     17  N         29.3460   42.7320  -45.6020 N.am  129  THR129     -0.1938
     18  CA        28.6530   42.2850  -44.4020 C.3   129  THR129      0.2028
     19  C         28.4530   40.7770  -44.4610 C.2   129  THR129      0.2643
     20  O         28.8980   40.1190  -45.4050 O.2   129  THR129     -0.2714
     21  CB        27.2780   42.9530  -44.2770 C.3   129  THR129      0.1808
     22  OG1       26.4110   42.4370  -45.2930 O.3   129  THR129     -0.2208
     23  CG2       27.4020   44.4590  -44.4370 C.3   129  THR129      0.0379
     24  N         27.7820   40.2270  -43.4570 N.am  130  SER130     -0.1935
     25  CA        27.5290   38.7960  -43.4330 C.3   130  SER130      0.2055
     26  C         26.3000   38.4810  -42.6150 C.2   130  SER130      0.2643
     27  O         25.9970   39.1710  -41.6430 O.2   130  SER130     -0.2714
     28  CB        28.7210   38.0400  -42.8460 C.3   130  SER130      0.2130
     29  OG        28.3810   36.6780  -42.6240 O.3   130  SER130     -0.2179
     30  N         25.5940   37.4290  -43.0140 N.am  131  SER131     -0.1949
     31  CA        24.3950   37.0070  -42.3090 C.3   131  SER131      0.1924
     32  C         24.7780   36.4120  -40.9620 C.2   131  SER131      0.2314
     33  O         23.9560   36.3340  -40.0500 O.2   131  SER131     -0.2863
     34  CB        23.6360   35.9740  -43.1390 C.3   131  SER131      0.2116
     35  OG        24.5280   35.0010  -43.6490 O.3   131  SER131     -0.2180
     36  N         35.3530   45.1280  -43.8540 N.3   143  TRP143     -0.1241
     37  CA        35.6330   43.9990  -44.7320 C.3   143  TRP143      0.1605
     38  C         35.8910   44.5610  -46.1300 C.2   143  TRP143      0.2264
     39  O         34.9520   44.7850  -46.8890 O.2   143  TRP143     -0.2867
     40  CB        34.4310   43.0610  -44.7920 C.3   143  TRP143      0.0550
     41  CG        34.7190   41.7670  -45.4760 C.ar  143  TRP143      0.0003
     42  CD1       35.7460   41.5020  -46.3380 C.ar  143  TRP143      0.0946
     43  CD2       33.9860   40.5480  -45.3370 C.ar  143  TRP143      0.0152
     44  NE1       35.7010   40.1910  -46.7390 N.ar  143  TRP143     -0.2442
     45  CE2       34.6300   39.5810  -46.1400 C.ar  143  TRP143      0.0810
     46  CE3       32.8460   40.1770  -44.6080 C.ar  143  TRP143      0.0012
     47  CZ2       34.1740   38.2610  -46.2350 C.ar  143  TRP143      0.0191
     48  CZ3       32.3900   38.8620  -44.6990 C.ar  143  TRP143      0.0001
     49  CH2       33.0570   37.9200  -45.5090 C.ar  143  TRP143      0.0015
     50  N         36.6660   44.7380  -49.9560 N.3   145  THR145     -0.1218
     51  CA        36.4590   43.8620  -51.1040 C.3   145  THR145      0.1862
     52  C         36.6020   44.6830  -52.3770 C.2   145  THR145      0.2287
     53  O         36.6240   45.9150  -52.3250 O.2   145  THR145     -0.2866
     54  CB        35.0770   43.1850  -51.0870 C.3   145  THR145      0.1770
     55  OG1       34.0570   44.1720  -50.9110 O.3   145  THR145     -0.2211
     56  CG2       35.0050   42.1650  -49.9740 C.3   145  THR145      0.0375
     57  N         40.8090   37.2690  -43.9920 N.3   173  ASN173     -0.1240
     58  CA        39.7630   36.3710  -44.4660 C.3   173  ASN173      0.1653
     59  C         40.3030   35.1900  -45.2690 C.2   173  ASN173      0.2266
     60  O         41.2040   35.3450  -46.0930 O.2   173  ASN173     -0.2867
     61  CB        38.7490   37.1500  -45.3130 C.3   173  ASN173      0.1155
     62  CG        37.7410   36.2450  -45.9980 C.2   173  ASN173      0.2627
     63  OD1       37.0700   35.4430  -45.3520 O.2   173  ASN173     -0.2716
     64  ND2       37.6310   36.3710  -47.3130 N.am  173  ASN173     -0.0877
     65  N         38.6420   32.6070  -47.6570 N.3   175  PRO175     -0.2103
     66  CA        37.4920   32.1590  -48.4530 C.3   175  PRO175      0.1489
     67  C         37.4300   30.6390  -48.5720 C.2   175  PRO175      0.2417
     68  O         38.4600   29.9690  -48.5960 O.2   175  PRO175     -0.2734
     69  CB        37.7300   32.8260  -49.8040 C.3   175  PRO175      0.0282
     70  CG        38.4730   34.0680  -49.4400 C.3   175  PRO175      0.0208
     71  CD        39.4550   33.5730  -48.4160 C.3   175  PRO175      0.0893
     72  N         36.2150   30.0760  -48.6470 N.am  176  PRO176     -0.2729
     73  CA        36.0430   28.6270  -48.7670 C.3   176  PRO176      0.1401
     74  C         36.3380   28.0730  -50.1640 C.2   176  PRO176      0.2269
     75  O         36.4590   26.8590  -50.3320 O.2   176  PRO176     -0.2865
     76  CB        34.5870   28.4220  -48.3590 C.3   176  PRO176      0.0296
     77  CG        33.9370   29.6600  -48.8660 C.3   176  PRO176      0.0237
     78  CD        34.9150   30.7410  -48.4550 C.3   176  PRO176      0.0939
     79  N         35.2200   32.3220  -54.8340 N.3   180  VAL180     -0.1245
     80  CA        34.8630   33.3710  -53.8880 C.3   180  VAL180      0.1561
     81  C         36.0730   34.2730  -53.6420 C.2   180  VAL180      0.2260
     82  O         35.9330   35.4910  -53.5050 O.2   180  VAL180     -0.2867
     83  CB        34.3860   32.7740  -52.5510 C.3   180  VAL180      0.0252
     84  CG1       34.0940   33.8830  -51.5540 C.3   180  VAL180      0.0019
     85  CG2       33.1450   31.9400  -52.7790 C.3   180  VAL180      0.0019
     86  N         35.9030   38.2990  -54.5990 N.3   184  LEU184     -0.1245
     87  CA        36.1030   39.3090  -53.5730 C.3   184  LEU184      0.1561
     88  C         37.3750   40.1270  -53.7050 C.2   184  LEU184      0.2260
     89  O         37.3610   41.3410  -53.4890 O.2   184  LEU184     -0.2867
     90  CB        36.0860   38.6650  -52.1850 C.3   184  LEU184      0.0270
     91  CG        34.7590   38.1090  -51.6810 C.3   184  LEU184      0.0019
     92  CD1       34.9320   37.5860  -50.2630 C.3   184  LEU184      0.0001
     93  CD2       33.7150   39.2060  -51.7080 C.3   184  LEU184      0.0001
     94  N         28.1880   28.7760  -37.8420 N.3   214  ASN214     -0.1225
     95  CA        27.2840   29.8830  -38.1390 C.3   214  ASN214      0.1785
     96  C         26.9140   29.8380  -39.6260 C.2   214  ASN214      0.2598
     97  O         26.7560   30.8740  -40.2710 O.2   214  ASN214     -0.2718
     98  CB        27.9390   31.2330  -37.8100 C.3   214  ASN214      0.1169
     99  CG        28.3140   31.3660  -36.3410 C.2   214  ASN214      0.2627
    100  OD1       27.5300   31.0180  -35.4540 O.2   214  ASN214     -0.2716
    101  ND2       29.5140   31.8880  -36.0770 N.am  214  ASN214     -0.0877
    102  N         26.8070   28.6260  -40.1640 N.am  215  GLY215     -0.1942
    103  CA        26.4400   28.4450  -41.5600 C.3   215  GLY215      0.2014
    104  C         27.4980   28.6990  -42.6240 C.2   215  GLY215      0.2639
    105  O         27.2370   28.4910  -43.8100 O.2   215  GLY215     -0.2714
    106  N         28.6910   29.1330  -42.2250 N.am  216  LEU216     -0.1963
    107  CA        29.7510   29.4160  -43.1890 C.3   216  LEU216      0.1728
    108  C         30.8870   28.3920  -43.1820 C.2   216  LEU216      0.2616
    109  O         31.1600   27.7530  -42.1630 O.2   216  LEU216     -0.2715
    110  CB        30.3250   30.8070  -42.9230 C.3   216  LEU216      0.0311
    111  CG        29.3150   31.9570  -42.9470 C.3   216  LEU216      0.0022
    112  CD1       29.9460   33.2060  -42.3700 C.3   216  LEU216      0.0001
    113  CD2       28.8430   32.1930  -44.3720 C.3   216  LEU216      0.0001
    114  N         31.5410   28.2400  -44.3320 N.am  217  HIS217     -0.1959
    115  CA        32.6660   27.3200  -44.4740 C.3   217  HIS217      0.1787
    116  C         33.9620   28.1250  -44.4580 C.2   217  HIS217      0.2620
    117  O         35.0470   27.5730  -44.2660 O.2   217  HIS217     -0.2715
    118  CB        32.5690   26.5320  -45.7890 C.3   217  HIS217      0.0785
    119  CG        31.6600   25.3420  -45.7230 C.ar  217  HIS217      0.0821
    120  ND1       31.8990   24.2670  -44.8920 N.ar  217  HIS217     -0.2267
    121  CD2       30.5200   25.0510  -46.3940 C.ar  217  HIS217      0.1154
    122  CE1       30.9450   23.3660  -45.0540 C.ar  217  HIS217      0.1986
    123  NE2       30.0960   23.8170  -45.9600 N.ar  217  HIS217     -0.2212
    124  N         33.8350   29.4330  -44.6660 N.am  218  GLY218     -0.1954
    125  CA        34.9930   30.3060  -44.6720 C.3   218  GLY218      0.1869
    126  C         35.3930   30.7220  -43.2710 C.2   218  GLY218      0.2309
    127  O         34.7440   30.3510  -42.2930 O.2   218  GLY218     -0.2863
@<TRIPOS>BOND
     1    79    80    1
     2    86    87    1
     3    80    81    1
     4    80    83    1
     5    88    87    1
     6    88    89    2
     7    81    82    2
     8    87    90    1
     9    85    83    1
    10    83    84    1
    11    52    53    2
    12    52    51    1
    13    90    91    1
    14    93    91    1
    15    91    92    1
    16    51    54    1
    17    51    50    1
    18    54    55    1
    19    54    56    1
    20    75    74    2
    21    74    73    1
    22    69    70    1
    23    69    66    1
    24    70    71    1
    25    77    78    1
    26    77    76    1
    27    73    72    1
    28    73    76    1
    29    72    67   am
    30    72    78    1
    31    68    67    2
    32    67    66    1
    33    66    65    1
    34    71    65    1
    35    64    62   am
    36    39    38    2
    37    14    13    1
    38    14    15    1
    39    44    42   ar
    40    44    45   ar
    41   121   123   ar
    42   121   119   ar
    43    42    41   ar
    44    47    45   ar
    45    47    49   ar
    46    45    43   ar
    47    38    37    1
    48    60    59    2
    49    62    63    2
    50    62    61    1
    51   123   122   ar
    52   118   119    1
    53   118   115    1
    54   119   120   ar
    55    17    15   am
    56    17    18    1
    57    15    16    2
    58    49    48   ar
    59    41    43   ar
    60    41    40    1
    61    20    19    2
    62    43    46   ar
    63    61    58    1
    64    22    21    1
    65    59    58    1
    66   122   120   ar
    67    40    37    1
    68    37    36    1
    69    48    46   ar
    70   125   124    1
    71   125   126    1
    72   124   116   am
    73   115   116    1
    74   115   114    1
    75    58    57    1
    76    19    18    1
    77    19    24   am
    78   116   117    2
    79    23    21    1
    80    12    11    1
    81    18    21    1
    82   113   111    1
    83   114   108   am
    84   105   104    2
    85    35    34    1
    86    24    25    1
    87    25    28    1
    88    25    26    1
    89   126   127    2
    90   107   108    1
    91   107   110    1
    92   107   106    1
    93   108   109    2
    94    11     9   ar
    95    11    10   ar
    96    34    31    1
    97    30    26   am
    98    30    31    1
    99   111   110    1
   100   111   112    1
   101     9     7   ar
   102    28    29    1
   103   104   106   am
   104   104   103    1
   105    26    27    2
   106    31    32    1
   107    10     8   ar
   108     7     6   ar
   109   103   102    1
   110    32    33    2
   111     8     6   ar
   112     6     5    1
   113    97    96    2
   114   102    96   am
   115    96    95    1
   116     5     2    1
   117     2     3    1
   118     2     1    1
   119    95    94    1
   120    95    98    1
   121    98    99    1
   122     3     4    2
   123    99   101   am
   124    99   100    2
