@<TRIPOS>MOLECULE
tmp/1jsiA03.pdb
 138 132 0 0 0
SMALL
GASTEIGER

@<TRIPOS>ATOM
      1  N         31.4730   36.2500  -37.2920 N.3    91  TYR91      -0.1241
      2  CA        31.9880   35.5910  -38.4800 C.3    91  TYR91       0.1605
      3  C         33.0190   34.5560  -38.0150 C.2    91  TYR91       0.2264
      4  O         33.9530   34.8860  -37.2830 O.2    91  TYR91      -0.2867
      5  CB        32.6520   36.5960  -39.4250 C.3    91  TYR91       0.0534
      6  CG        32.7870   36.0670  -40.8340 C.ar   91  TYR91      -0.0201
      7  CD1       31.8430   36.3820  -41.8110 C.ar   91  TYR91      -0.0009
      8  CD2       33.8170   35.1880  -41.1730 C.ar   91  TYR91      -0.0009
      9  CE1       31.9180   35.8320  -43.0880 C.ar   91  TYR91       0.0417
     10  CE2       33.9020   34.6280  -42.4450 C.ar   91  TYR91       0.0417
     11  CZ        32.9470   34.9520  -43.3970 C.ar   91  TYR91       0.1957
     12  OH        33.0150   34.3800  -44.6480 O.3    91  TYR91      -0.2866
     13  N         35.7460   48.7430  -52.2090 N.3   125  SER125     -0.1217
     14  CA        34.5240   48.6850  -51.4230 C.3   125  SER125      0.1889
     15  C         34.9090   48.4440  -49.9640 C.2   125  SER125      0.2288
     16  O         35.8940   47.7610  -49.6800 O.2   125  SER125     -0.2866
     17  CB        33.6120   47.5650  -51.9210 C.3   125  SER125      0.2089
     18  OG        32.3740   47.5960  -51.2270 O.3   125  SER125     -0.2183
     19  N         32.0860   48.3850  -47.3100 N.3   127  SER127     -0.1202
     20  CA        30.8970   48.0890  -46.5150 C.3   127  SER127      0.2020
     21  C         30.4270   46.6420  -46.5590 C.2   127  SER127      0.2619
     22  O         29.2680   46.3540  -46.2590 O.2   127  SER127     -0.2717
     23  CB        29.7550   49.0090  -46.9420 C.3   127  SER127      0.2103
     24  OG        29.5520   48.9290  -48.3410 O.3   127  SER127     -0.2182
     25  N         31.3200   45.7300  -46.9230 N.am  128  GLY128     -0.1942
     26  CA        30.9440   44.3290  -46.9690 C.3   128  GLY128      0.2014
     27  C         30.3020   43.8780  -45.6670 C.2   128  GLY128      0.2640
     28  O         30.6400   44.3630  -44.5890 O.2   128  GLY128     -0.2714
     29  N         29.3660   42.9430  -45.7580 N.am  129  THR129     -0.1936
     30  CA        28.6870   42.4440  -44.5720 C.3   129  THR129      0.2028
     31  C         28.4900   40.9360  -44.6800 C.2   129  THR129      0.2643
     32  O         28.9500   40.3040  -45.6360 O.2   129  THR129     -0.2714
     33  CB        27.3120   43.0960  -44.4200 C.3   129  THR129      0.1808
     34  OG1       26.4510   42.6230  -45.4630 O.3   129  THR129     -0.2208
     35  CG2       27.4310   44.6060  -44.5210 C.3   129  THR129      0.0379
     36  N         27.7960   40.3610  -43.7050 N.am  130  SER130     -0.1935
     37  CA        27.5370   38.9280  -43.7150 C.3   130  SER130      0.2055
     38  C         26.3010   38.6000  -42.9070 C.2   130  SER130      0.2643
     39  O         25.9620   39.3190  -41.9710 O.2   130  SER130     -0.2714
     40  CB        28.7210   38.1590  -43.1320 C.3   130  SER130      0.2130
     41  OG        28.3620   36.8040  -42.9130 O.3   130  SER130     -0.2179
     42  N         25.6330   37.5120  -43.2700 N.am  131  SER131     -0.1949
     43  CA        24.4360   37.0770  -42.5640 C.3   131  SER131      0.1924
     44  C         24.8230   36.5170  -41.1990 C.2   131  SER131      0.2314
     45  O         24.0080   36.4730  -40.2760 O.2   131  SER131     -0.2863
     46  CB        23.7110   36.0050  -43.3760 C.3   131  SER131      0.2116
     47  OG        24.6120   34.9830  -43.7700 O.3   131  SER131     -0.2180
     48  N         35.4110   45.2300  -43.9610 N.3   143  TRP143     -0.1241
     49  CA        35.6840   44.1120  -44.8530 C.3   143  TRP143      0.1605
     50  C         35.9400   44.6760  -46.2470 C.2   143  TRP143      0.2264
     51  O         35.0030   44.8720  -47.0120 O.2   143  TRP143     -0.2867
     52  CB        34.4820   43.1720  -44.9140 C.3   143  TRP143      0.0550
     53  CG        34.7640   41.8800  -45.6120 C.ar  143  TRP143      0.0003
     54  CD1       35.7750   41.6220  -46.4930 C.ar  143  TRP143      0.0946
     55  CD2       34.0480   40.6490  -45.4510 C.ar  143  TRP143      0.0152
     56  NE1       35.7390   40.3040  -46.8820 N.ar  143  TRP143     -0.2442
     57  CE2       34.6890   39.6850  -46.2560 C.ar  143  TRP143      0.0810
     58  CE3       32.9270   40.2680  -44.6990 C.ar  143  TRP143      0.0012
     59  CZ2       34.2510   38.3610  -46.3310 C.ar  143  TRP143      0.0191
     60  CZ3       32.4890   38.9480  -44.7730 C.ar  143  TRP143      0.0001
     61  CH2       33.1530   38.0110  -45.5840 C.ar  143  TRP143      0.0015
     62  N         36.6830   44.8240  -50.0470 N.3   145  THR145     -0.1203
     63  CA        36.4820   43.9350  -51.1900 C.3   145  THR145      0.1994
     64  C         36.5710   44.7680  -52.4630 C.2   145  THR145      0.2617
     65  O         36.5040   45.9960  -52.4070 O.2   145  THR145     -0.2717
     66  CB        35.1170   43.2200  -51.1440 C.3   145  THR145      0.1784
     67  OG1       34.0620   44.1880  -51.0880 O.3   145  THR145     -0.2211
     68  CG2       35.0440   42.3110  -49.9420 C.3   145  THR145      0.0376
     69  N         36.7150   44.1050  -53.6070 N.am  146  GLN146     -0.1979
     70  CA        36.8580   44.8120  -54.8790 C.3   146  GLN146      0.1601
     71  C         35.6940   45.7040  -55.2900 C.2   146  GLN146      0.2287
     72  O         34.5320   45.4350  -54.9820 O.2   146  GLN146     -0.2864
     73  CB        37.1820   43.8210  -56.0080 C.3   146  GLN146      0.0394
     74  CG        36.2100   43.8350  -57.1770 C.3   146  GLN146      0.0908
     75  CD        34.9420   43.0780  -56.8700 C.2   146  GLN146      0.2608
     76  OE1       34.0470   42.9660  -57.7100 O.2   146  GLN146     -0.2717
     77  NE2       34.8570   42.5450  -55.6570 N.am  146  GLN146     -0.0878
     78  N         40.9080   37.3420  -44.1750 N.3   173  ASN173     -0.1240
     79  CA        39.8720   36.4550  -44.6920 C.3   173  ASN173      0.1653
     80  C         40.4400   35.2600  -45.4440 C.2   173  ASN173      0.2266
     81  O         41.3790   35.3960  -46.2260 O.2   173  ASN173     -0.2867
     82  CB        38.9260   37.2330  -45.6120 C.3   173  ASN173      0.1155
     83  CG        37.8550   36.3500  -46.2320 C.2   173  ASN173      0.2627
     84  OD1       37.1520   35.6270  -45.5310 O.2   173  ASN173     -0.2716
     85  ND2       37.7220   36.4130  -47.5540 N.am  173  ASN173     -0.0877
     86  N         38.7650   32.6400  -47.7870 N.3   175  PRO175     -0.2103
     87  CA        37.6200   32.1620  -48.5730 C.3   175  PRO175      0.1489
     88  C         37.5800   30.6360  -48.6920 C.2   175  PRO175      0.2417
     89  O         38.6140   29.9740  -48.6390 O.2   175  PRO175     -0.2734
     90  CB        37.8370   32.8310  -49.9240 C.3   175  PRO175      0.0282
     91  CG        38.4980   34.1090  -49.5550 C.3   175  PRO175      0.0208
     92  CD        39.5040   33.6780  -48.5240 C.3   175  PRO175      0.0893
     93  N         36.3810   30.0620  -48.8540 N.am  176  PRO176     -0.2729
     94  CA        36.2450   28.6090  -48.9790 C.3   176  PRO176      0.1401
     95  C         36.5610   28.0590  -50.3750 C.2   176  PRO176      0.2269
     96  O         36.7480   26.8490  -50.5420 O.2   176  PRO176     -0.2865
     97  CB        34.7930   28.3680  -48.5730 C.3   176  PRO176      0.0296
     98  CG        34.1090   29.5890  -49.0750 C.3   176  PRO176      0.0237
     99  CD        35.0630   30.6980  -48.6850 C.3   176  PRO176      0.0939
    100  N         35.3440   32.3930  -54.9730 N.3   180  VAL180     -0.1245
    101  CA        34.9860   33.4260  -54.0100 C.3   180  VAL180      0.1561
    102  C         36.1930   34.3480  -53.8020 C.2   180  VAL180      0.2260
    103  O         36.0430   35.5640  -53.6910 O.2   180  VAL180     -0.2867
    104  CB        34.5710   32.8120  -52.6590 C.3   180  VAL180      0.0252
    105  CG1       34.3630   33.9080  -51.6300 C.3   180  VAL180      0.0019
    106  CG2       33.2990   32.0050  -52.8300 C.3   180  VAL180      0.0019
    107  N         36.6060   36.4480  -56.7660 N.3   183  ASN183     -0.1225
    108  CA        35.3590   37.1910  -56.7220 C.3   183  ASN183      0.1785
    109  C         35.4100   38.4090  -55.7950 C.2   183  ASN183      0.2597
    110  O         34.8080   39.4470  -56.0840 O.2   183  ASN183     -0.2718
    111  CB        34.2490   36.2570  -56.2650 C.3   183  ASN183      0.1169
    112  CG        32.9000   36.6820  -56.7580 C.2   183  ASN183      0.2627
    113  OD1       32.4580   37.8070  -56.5090 O.2   183  ASN183     -0.2716
    114  ND2       32.2270   35.7820  -57.4680 N.am  183  ASN183     -0.0877
    115  N         36.1260   38.2790  -54.6800 N.am  184  LEU184     -0.1980
    116  CA        36.2330   39.3680  -53.7160 C.3   184  LEU184      0.1596
    117  C         37.4760   40.2300  -53.8650 C.2   184  LEU184      0.2287
    118  O         37.4260   41.4400  -53.6390 O.2   184  LEU184     -0.2864
    119  CB        36.2060   38.8190  -52.2890 C.3   184  LEU184      0.0297
    120  CG        34.9380   38.1060  -51.8280 C.3   184  LEU184      0.0022
    121  CD1       35.1460   37.5630  -50.4240 C.3   184  LEU184      0.0001
    122  CD2       33.7720   39.0700  -51.8610 C.3   184  LEU184      0.0001
    123  N         26.7000   28.7310  -40.5030 N.3   215  GLY215     -0.1210
    124  CA        26.3350   28.4870  -41.8870 C.3   215  GLY215      0.1956
    125  C         27.3870   28.8290  -42.9310 C.2   215  GLY215      0.2611
    126  O         27.0520   29.0000  -44.1030 O.2   215  GLY215     -0.2717
    127  N         28.6550   28.9110  -42.5280 N.am  216  LEU216     -0.1979
    128  CA        29.7320   29.2480  -43.4600 C.3   216  LEU216      0.1596
    129  C         30.9110   28.2740  -43.4250 C.2   216  LEU216      0.2287
    130  O         31.1720   27.6370  -42.4010 O.2   216  LEU216     -0.2864
    131  CB        30.2450   30.6580  -43.1670 C.3   216  LEU216      0.0297
    132  CG        29.2690   31.8090  -43.4100 C.3   216  LEU216      0.0022
    133  CD1       29.8130   33.0920  -42.7970 C.3   216  LEU216      0.0001
    134  CD2       29.0490   31.9710  -44.9070 C.3   216  LEU216      0.0001
    135  N         33.9130   29.4380  -44.8840 N.3   218  GLY218     -0.1225
    136  CA        35.0650   30.3210  -44.9060 C.3   218  GLY218      0.1811
    137  C         35.4470   30.7540  -43.5030 C.2   218  GLY218      0.2280
    138  O         34.7900   30.3800  -42.5290 O.2   218  GLY218     -0.2866
@<TRIPOS>BOND
     1    76    75    2
     2   114   112   am
     3    74    75    1
     4    74    73    1
     5    75    77   am
     6   107   108    1
     7   112   113    2
     8   112   111    1
     9   108   111    1
    10   108   109    1
    11   110   109    2
    12    73    70    1
    13   109   115   am
    14    71    72    2
    15    71    70    1
    16   100   101    1
    17    70    69    1
    18   115   116    1
    19   101   102    1
    20   101   104    1
    21   117   116    1
    22   117   118    2
    23   102   103    2
    24   116   119    1
    25    69    64   am
    26   106   104    1
    27   104   105    1
    28    64    65    2
    29    64    63    1
    30   119   120    1
    31    13    14    1
    32    17    14    1
    33    17    18    1
    34   122   120    1
    35   120   121    1
    36    14    15    1
    37    63    66    1
    38    63    62    1
    39    66    67    1
    40    66    68    1
    41    96    95    2
    42    95    94    1
    43    15    16    2
    44    90    91    1
    45    90    87    1
    46    91    92    1
    47    98    99    1
    48    98    97    1
    49    94    93    1
    50    94    97    1
    51    93    88   am
    52    93    99    1
    53    88    89    2
    54    88    87    1
    55    87    86    1
    56    92    86    1
    57    24    23    1
    58    85    83   am
    59    19    20    1
    60    51    50    2
    61    26    25    1
    62    26    27    1
    63    23    20    1
    64    25    21   am
    65    56    54   ar
    66    56    57   ar
    67    21    20    1
    68    21    22    2
    69    54    53   ar
    70    59    57   ar
    71    59    61   ar
    72    57    55   ar
    73    50    49    1
    74    83    82    1
    75    83    84    2
    76    81    80    2
    77    29    27   am
    78    29    30    1
    79    27    28    2
    80    32    31    2
    81    53    55   ar
    82    53    52    1
    83    82    79    1
    84    61    60   ar
    85    34    33    1
    86    55    58   ar
    87    80    79    1
    88    52    49    1
    89   134   132    1
    90   136   135    1
    91   136   137    1
    92    49    48    1
    93    60    58   ar
    94    79    78    1
    95    31    30    1
    96    31    36   am
    97    12    11    1
    98    30    33    1
    99    35    33    1
   100   126   125    2
   101    47    46    1
   102    37    36    1
   103    37    40    1
   104    37    38    1
   105   137   138    2
   106   128   129    1
   107   128   131    1
   108   128   127    1
   109   129   130    2
   110   132   131    1
   111   132   133    1
   112    11     9   ar
   113    11    10   ar
   114    46    43    1
   115    42    38   am
   116    42    43    1
   117    40    41    1
   118     9     7   ar
   119   125   127   am
   120   125   124    1
   121    38    39    2
   122    43    44    1
   123    10     8   ar
   124   124   123    1
   125     7     6   ar
   126    44    45    2
   127     8     6   ar
   128     6     5    1
   129     5     2    1
   130     2     3    1
   131     2     1    1
   132     3     4    2
