@<TRIPOS>MOLECULE
tmp/1jslB00.pdb
 89 83 0 0 0
SMALL
GASTEIGER

@<TRIPOS>ATOM
      1  N         52.9110    4.7300   16.7840 N.3    11  GLY11      -0.1210
      2  CA        51.7110    5.1380   17.5020 C.3    11  GLY11       0.1956
      3  C         51.7310    6.4820   18.2130 C.2    11  GLY11       0.2612
      4  O         52.7590    7.1560   18.2820 O.2    11  GLY11      -0.2717
      5  N         50.5750    6.8640   18.7500 N.am   12  THR12      -0.1952
      6  CA        50.4310    8.1250   19.4680 C.3    12  THR12       0.1897
      7  C         51.2890    8.1680   20.7250 C.2    12  THR12       0.2313
      8  O         51.6970    9.2420   21.1590 O.2    12  THR12      -0.2863
      9  CB        48.9650    8.3700   19.8730 C.3    12  THR12       0.1794
     10  OG1       48.1600    8.4860   18.6930 O.3    12  THR12      -0.2208
     11  CG2       48.8410    9.6410   20.7050 C.3    12  THR12       0.0378
     12  N         47.7670   15.0880   15.3930 N.3    26  TYR26      -0.1241
     13  CA        49.2080   15.1010   15.6170 C.3    26  TYR26       0.1605
     14  C         49.9030   14.0690   14.7310 C.2    26  TYR26       0.2264
     15  O         49.2650   13.4080   13.9160 O.2    26  TYR26      -0.2867
     16  CB        49.5050   14.7740   17.0750 C.3    26  TYR26       0.0534
     17  CG        48.7810   13.5350   17.5350 C.ar   26  TYR26      -0.0201
     18  CD1       47.5320   13.6260   18.1490 C.ar   26  TYR26      -0.0009
     19  CD2       49.3150   12.2660   17.3080 C.ar   26  TYR26      -0.0009
     20  CE1       46.8330   12.4890   18.5240 C.ar   26  TYR26       0.0417
     21  CE2       48.6220   11.1190   17.6780 C.ar   26  TYR26       0.0417
     22  CZ        47.3810   11.2410   18.2860 C.ar   26  TYR26       0.1957
     23  OH        46.6880   10.1210   18.6630 O.3    26  TYR26      -0.2866
     24  N         51.8470   10.6030   14.6310 N.3    28  ALA28      -0.1245
     25  CA        52.1210    9.3760   15.3690 C.3    28  ALA28       0.1562
     26  C         53.4620    8.8010   14.9260 C.2    28  ALA28       0.2260
     27  O         53.9100    9.0540   13.8060 O.2    28  ALA28      -0.2867
     28  CB        51.0060    8.3610   15.1250 C.3    28  ALA28       0.0290
     29  N         52.1620    5.0280   12.0470 N.3    58  ALA58      -0.1231
     30  CA        50.8100    5.2070   12.5620 C.3    58  ALA58       0.1694
     31  C         50.2020    3.8170   12.3350 C.2    58  ALA58       0.2593
     32  O         50.3090    3.2670   11.2330 O.2    58  ALA58      -0.2718
     33  CB        50.0790    6.2650   11.7420 C.3    58  ALA58       0.0304
     34  N         49.5710    3.2410   13.3560 N.am   59  SER59      -0.1938
     35  CA        49.0340    1.8880   13.2210 C.3    59  SER59       0.2055
     36  C         48.0030    1.6960   12.1170 C.2    59  SER59       0.2642
     37  O         47.7280    0.5610   11.7220 O.2    59  SER59      -0.2714
     38  CB        48.4850    1.3750   14.5640 C.3    59  SER59       0.2130
     39  OG        47.2130    1.9080   14.8710 O.3    59  SER59      -0.2179
     40  N         47.4380    2.7820   11.5970 N.am   60  GLU60      -0.1976
     41  CA        46.4710    2.6220   10.5140 C.3    60  GLU60       0.1602
     42  C         47.2090    2.0750    9.2930 C.2    60  GLU60       0.2287
     43  O         46.5900    1.5660    8.3550 O.2    60  GLU60      -0.2864
     44  CB        45.7860    3.9490   10.1550 C.3    60  GLU60       0.0415
     45  CG        46.7320    5.0750    9.7700 C.3    60  GLU60       0.1163
     46  CD        46.9730    6.0320   10.9150 C.2    60  GLU60       0.3649
     47  OE1       47.1680    5.5590   12.0480 O.co2  60  GLU60      -0.2457
     48  OE2       46.9820    7.2570   10.6780 O.co2  60  GLU60      -0.2457
     49  N         50.3510    1.8290   17.9040 N.3    91  GLY91      -0.1210
     50  CA        49.2790    2.8030   17.7720 C.3    91  GLY91       0.1956
     51  C         47.9830    2.1720   18.2470 C.2    91  GLY91       0.2613
     52  O         47.8040    0.9630   18.1170 O.2    91  GLY91      -0.2717
     53  N         47.0740    2.9820   18.7890 N.am   92  THR92      -0.1938
     54  CA        45.8090    2.4670   19.3090 C.3    92  THR92       0.2028
     55  C         44.8390    1.9610   18.2520 C.2    92  THR92       0.2642
     56  O         44.1200    0.9910   18.4860 O.2    92  THR92      -0.2714
     57  CB        45.0280    3.5400   20.1300 C.3    92  THR92       0.1808
     58  OG1       44.7120    4.6550   19.2820 O.3    92  THR92      -0.2208
     59  CG2       45.8400    4.0140   21.3320 C.3    92  THR92       0.0379
     60  N         44.8220    2.6050   17.0880 N.am   93  ASP93      -0.1971
     61  CA        43.8650    2.2380   16.0510 C.3    93  ASP93       0.1709
     62  C         43.7760    0.7760   15.6460 C.2    93  ASP93       0.2293
     63  O         42.6720    0.2390   15.5310 O.2    93  ASP93      -0.2864
     64  CB        44.0660    3.1180   14.8160 C.3    93  ASP93       0.1436
     65  CG        43.7680    4.5770   15.0990 C.2    93  ASP93       0.3671
     66  OD1       43.2890    4.8780   16.2140 O.co2  93  ASP93      -0.2456
     67  OD2       44.0060    5.4210   14.2140 O.co2  93  ASP93      -0.2456
     68  N         48.7670    4.8020   23.7700 N.3   117  ALA117     -0.1231
     69  CA        48.3570    6.0500   24.4050 C.3   117  ALA117      0.1694
     70  C         47.3870    6.7800   23.4870 C.2   117  ALA117      0.2591
     71  O         47.5520    6.7640   22.2660 O.2   117  ALA117     -0.2718
     72  CB        49.5800    6.9280   24.6850 C.3   117  ALA117      0.0304
     73  N         46.3700    7.4070   24.0700 N.am  118  MET118     -0.1979
     74  CA        45.3860    8.1380   23.2820 C.3   118  MET118      0.1605
     75  C         45.7630    9.6000   23.0760 C.2   118  MET118      0.2287
     76  O         45.2490   10.2560   22.1630 O.2   118  MET118     -0.2864
     77  CB        43.9980    8.0290   23.9250 C.3   118  MET118      0.0413
     78  CG        43.3120    6.6950   23.6600 C.3   118  MET118      0.0598
     79  SD        43.0300    6.3930   21.8920 S.3   118  MET118     -0.1393
     80  CE        41.5480    7.3810   21.6480 C.3   118  MET118      0.0692
     81  N         39.1270   -1.1960   20.7280 N.3   165  LYS165     -0.1245
     82  CA        39.0280    0.2460   20.8720 C.3   165  LYS165      0.1561
     83  C         37.5580    0.5270   20.6030 C.2   165  LYS165      0.2260
     84  O         37.1060    0.4160   19.4670 O.2   165  LYS165     -0.2867
     85  CB        39.8960    0.9500   19.8260 C.3   165  LYS165      0.0271
     86  CG        39.8590    2.4630   19.9480 C.3   165  LYS165      0.0035
     87  CD        40.8930    3.1350   19.0540 C.3   165  LYS165      0.0206
     88  CE        40.9260    4.6350   19.3260 C.3   165  LYS165      0.1093
     89  NZ        42.1010    5.2660   18.6490 N.3   165  LYS165     -0.1314
@<TRIPOS>BOND
     1    43    42    2
     2    42    41    1
     3    45    44    1
     4    45    46    1
     5    44    41    1
     6    41    40    1
     7    48    46   ar
     8    46    47   ar
     9    32    31    2
    10    40    36   am
    11    37    36    2
    12    33    30    1
    13    29    30    1
    14    36    35    1
    15    31    30    1
    16    31    34   am
    17    35    34    1
    18    35    38    1
    19    27    26    2
    20    15    14    2
    21    67    65   ar
    22    38    39    1
    23    24    25    1
    24    14    13    1
    25    64    65    1
    26    64    61    1
    27    26    25    1
    28    65    66   ar
    29    28    25    1
    30    12    13    1
    31    63    62    2
    32    13    16    1
    33    62    61    1
    34    61    60    1
    35     1     2    1
    36    16    17    1
    37    60    55   am
    38    19    17   ar
    39    19    21   ar
    40     2     3    1
    41    17    18   ar
    42    21    22   ar
    43    50    49    1
    44    50    51    1
    45    52    51    2
    46    18    20   ar
    47     3     4    2
    48     3     5   am
    49    51    53   am
    50    55    56    2
    51    55    54    1
    52    22    20   ar
    53    22    23    1
    54    89    88    1
    55    10     9    1
    56     5     6    1
    57    53    54    1
    58    87    88    1
    59    87    86    1
    60    58    57    1
    61    54    57    1
    62    84    83    2
    63     6     9    1
    64     6     7    1
    65    85    86    1
    66    85    82    1
    67     9    11    1
    68    57    59    1
    69    83    82    1
    70     7     8    2
    71    81    82    1
    72    80    79    1
    73    79    78    1
    74    76    75    2
    75    71    70    2
    76    75    74    1
    77    74    77    1
    78    74    73    1
    79    70    73   am
    80    70    69    1
    81    78    77    1
    82    68    69    1
    83    69    72    1
