@<TRIPOS>MOLECULE
tmp/1jsvA00.pdb
 141 134 0 0 0
SMALL
GASTEIGER

@<TRIPOS>ATOM
      1  N         13.7040   15.0670   30.3310 N.3    10  ILE10      -0.1245
      2  CA        12.6190   14.0920   30.0320 C.3    10  ILE10       0.1561
      3  C         12.7350   12.9460   31.0300 C.2    10  ILE10       0.2260
      4  O         11.7680   12.3660   31.4900 O.2    10  ILE10      -0.2867
      5  CB        12.7210   13.5580   28.6100 C.3    10  ILE10       0.0252
      6  CG1       12.3290   14.5540   27.5050 C.3    10  ILE10       0.0019
      7  CG2       11.9230   12.2640   28.4600 C.3    10  ILE10       0.0019
      8  CD1       12.8960   14.1310   26.1440 C.3    10  ILE10       0.0001
      9  N         18.4250   12.3910   29.6720 N.3    18  VAL18      -0.1245
     10  CA        17.7950   12.6780   28.3760 C.3    18  VAL18       0.1561
     11  C         17.0200   13.9870   28.4760 C.2    18  VAL18       0.2260
     12  O         16.0750   14.1150   29.2550 O.2    18  VAL18      -0.2867
     13  CB        16.7860   11.5670   28.0090 C.3    18  VAL18       0.0252
     14  CG1       16.1610   11.8270   26.6520 C.3    18  VAL18       0.0019
     15  CG2       17.4600   10.1990   28.0370 C.3    18  VAL18       0.0019
     16  N         15.3430   15.1770   21.1060 N.3    31  ALA31      -0.1245
     17  CA        15.6420   14.5450   22.4090 C.3    31  ALA31       0.1562
     18  C         17.1840   14.4390   22.4850 C.2    31  ALA31       0.2260
     19  O         17.8050   13.8970   21.5640 O.2    31  ALA31      -0.2867
     20  CB        14.9950   13.1720   22.4770 C.3    31  ALA31       0.0290
     21  N         20.4170   13.0650   24.3120 N.3    33  LYS33      -0.1245
     22  CA        20.8100   12.0450   25.3070 C.3    33  LYS33       0.1561
     23  C         22.2920   12.1580   25.6000 C.2    33  LYS33       0.2260
     24  O         23.1240   12.0430   24.6820 O.2    33  LYS33      -0.2867
     25  CB        20.4980   10.6390   24.7130 C.3    33  LYS33       0.0271
     26  CG        19.0400   10.5380   24.2420 C.3    33  LYS33       0.0035
     27  CD        18.4600    9.1580   24.4670 C.3    33  LYS33       0.0206
     28  CE        17.1110    8.9990   23.7880 C.3    33  LYS33       0.1093
     29  NZ        16.3000    7.8800   24.3670 N.3    33  LYS33      -0.1314
     30  N         12.9320    5.4370   15.9340 N.3    54  VAL54      -0.1245
     31  CA        13.1970    6.8490   16.2810 C.3    54  VAL54       0.1561
     32  C         14.4690    7.2800   15.5650 C.2    54  VAL54       0.2260
     33  O         15.5180    6.6520   15.7140 O.2    54  VAL54      -0.2867
     34  CB        13.3900    7.0040   17.8050 C.3    54  VAL54       0.0252
     35  CG1       13.6700    8.4790   18.1500 C.3    54  VAL54       0.0019
     36  CG2       12.0840    6.5920   18.4890 C.3    54  VAL54       0.0019
     37  N         18.2290   12.7860   18.9990 N.3    70  PHE70      -0.1227
     38  CA        17.2190   11.9580   18.3280 C.3    70  PHE70       0.1736
     39  C         15.9730   12.7830   17.9940 C.2    70  PHE70       0.2595
     40  O         15.7200   13.8300   18.6000 O.2    70  PHE70      -0.2718
     41  CB        16.7620   10.8340   19.2960 C.3    70  PHE70       0.0547
     42  CG        17.7990    9.7370   19.4760 C.ar   70  PHE70      -0.0202
     43  CD1       18.7800    9.8410   20.4390 C.ar   70  PHE70      -0.0042
     44  CD2       17.7540    8.5990   18.6870 C.ar   70  PHE70      -0.0042
     45  CE1       19.7090    8.8280   20.6280 C.ar   70  PHE70      -0.0003
     46  CE2       18.6770    7.5740   18.8690 C.ar   70  PHE70      -0.0003
     47  CZ        19.6480    7.6840   19.8530 C.ar   70  PHE70      -0.0000
     48  N         15.1520   12.2230   17.1190 N.am   71  GLU71      -0.1965
     49  CA        13.8320   12.8510   16.8360 C.3    71  GLU71       0.1733
     50  C         13.0160   12.7940   18.1330 C.2    71  GLU71       0.2616
     51  O         13.1700   11.8390   18.9120 O.2    71  GLU71      -0.2715
     52  CB        13.1570   12.0270   15.7400 C.3    71  GLU71       0.0429
     53  CG        11.9670   11.2120   16.1320 C.3    71  GLU71       0.1163
     54  CD        11.3080   10.4960   14.9620 C.2    71  GLU71       0.3649
     55  OE1       11.8960    9.5290   14.4450 O.co2  71  GLU71      -0.2457
     56  OE2       10.2040   10.9180   14.5470 O.co2  71  GLU71      -0.2457
     57  N         12.2020   13.8000   18.4030 N.am   72  PHE72      -0.1960
     58  CA        11.4390   13.8410   19.6530 C.3    72  PHE72       0.1771
     59  C         10.0100   13.3560   19.4770 C.2    72  PHE72       0.2619
     60  O          9.3430   13.6860   18.5030 O.2    72  PHE72      -0.2715
     61  CB        11.4180   15.2900   20.1810 C.3    72  PHE72       0.0574
     62  CG        10.5140   15.5080   21.3770 C.ar   72  PHE72      -0.0200
     63  CD1       10.9570   15.2360   22.6620 C.ar   72  PHE72      -0.0042
     64  CD2        9.2250   16.0010   21.2140 C.ar   72  PHE72      -0.0042
     65  CE1       10.1400   15.4440   23.7540 C.ar   72  PHE72      -0.0003
     66  CE2        8.4120   16.2330   22.3110 C.ar   72  PHE72      -0.0003
     67  CZ         8.8680   15.9520   23.5920 C.ar   72  PHE72      -0.0000
     68  N          9.5350   12.5610   20.4270 N.am   73  LEU73      -0.1963
     69  CA         8.1180   12.1320   20.4110 C.3    73  LEU73       0.1728
     70  C          7.5520   12.5090   21.7960 C.2    73  LEU73       0.2616
     71  O          8.3620   12.5560   22.7490 O.2    73  LEU73      -0.2715
     72  CB         7.9910   10.6470   20.1510 C.3    73  LEU73       0.0311
     73  CG         8.1420   10.2340   18.6520 C.3    73  LEU73       0.0022
     74  CD1        9.5910    9.7820   18.4270 C.3    73  LEU73       0.0001
     75  CD2        7.1800    9.0750   18.3480 C.3    73  LEU73       0.0001
     76  N          6.2770   12.8280   21.8640 N.am   74  HIS74      -0.1959
     77  CA         5.6230   13.3120   23.0270 C.3    74  HIS74       0.1787
     78  C          5.3750   12.3980   24.1670 C.2    74  HIS74       0.2620
     79  O          5.2180   12.8760   25.3260 O.2    74  HIS74      -0.2715
     80  CB         4.4980   14.2820   22.7840 C.3    74  HIS74       0.0785
     81  CG         4.8170   15.5110   22.0160 C.ar   74  HIS74       0.0821
     82  ND1        5.0870   15.5010   20.6480 N.ar   74  HIS74      -0.2267
     83  CD2        4.8880   16.8220   22.4200 C.ar   74  HIS74       0.1154
     84  CE1        5.3220   16.7340   20.2550 C.ar   74  HIS74       0.1986
     85  NE2        5.2010   17.5440   21.2940 N.ar   74  HIS74      -0.2212
     86  N          5.2880   11.0800   23.9710 N.am   75  GLN75      -0.1963
     87  CA         4.9730   10.2020   25.1260 C.3    75  GLN75       0.1733
     88  C          5.5410    8.7940   24.9250 C.2    75  GLN75       0.2616
     89  O          5.7860    8.3560   23.8010 O.2    75  GLN75      -0.2715
     90  CB         3.4150   10.0900   25.1710 C.3    75  GLN75       0.0408
     91  CG         2.9230    9.4100   26.4430 C.3    75  GLN75       0.0908
     92  CD         1.4600    9.6810   26.7240 C.2    75  GLN75       0.2608
     93  OE1        0.6620    8.7570   26.8600 O.2    75  GLN75      -0.2717
     94  NE2        1.0860   10.9610   26.8140 N.am   75  GLN75      -0.0878
     95  N          5.7440    8.0740   26.0310 N.am   76  ASP76      -0.1971
     96  CA         6.2340    6.7020   25.9690 C.3    76  ASP76       0.1709
     97  C          5.1600    5.6910   26.2520 C.2    76  ASP76       0.2293
     98  O          4.1160    6.0100   26.8500 O.2    76  ASP76      -0.2864
     99  CB         7.5060    6.4770   26.7220 C.3    76  ASP76       0.1436
    100  CG         7.3870    6.4230   28.2200 C.2    76  ASP76       0.3671
    101  OD1        6.4290    5.8020   28.7410 O.co2  76  ASP76      -0.2456
    102  OD2        8.2380    7.0130   28.9090 O.co2  76  ASP76      -0.2456
    103  N          3.8520    5.3470   30.0250 N.3    79  LYS79      -0.1245
    104  CA         2.9110    6.3530   30.5520 C.3    79  LYS79       0.1561
    105  C          1.5410    6.1180   29.9400 C.2    79  LYS79       0.2260
    106  O          0.5220    6.1960   30.6120 O.2    79  LYS79      -0.2867
    107  CB         3.4270    7.7450   30.1960 C.3    79  LYS79       0.0271
    108  CG         2.4320    8.8760   30.4110 C.3    79  LYS79       0.0035
    109  CD         3.2080   10.2090   30.5010 C.3    79  LYS79       0.0206
    110  CE         2.2950   11.3790   30.1990 C.3    79  LYS79       0.1093
    111  NZ         3.0040   12.6940   30.3320 N.3    79  LYS79      -0.1314
    112  N          9.2230    1.7460   28.2070 N.3   121  GLN121     -0.1231
    113  CA         9.8860    3.0370   28.2800 C.3   121  GLN121      0.1698
    114  C         10.5520    3.4220   26.9660 C.2   121  GLN121      0.2592
    115  O         10.7920    4.6060   26.7080 O.2   121  GLN121     -0.2718
    116  CB        10.9670    3.0470   29.3640 C.3   121  GLN121      0.0381
    117  CG        10.5150    3.3320   30.7740 C.3   121  GLN121      0.0905
    118  CD        11.4420    2.6560   31.8010 C.2   121  GLN121      0.2608
    119  OE1       11.0230    1.7040   32.4600 O.2   121  GLN121     -0.2717
    120  NE2       12.6790    3.1180   31.8850 N.am  121  GLN121     -0.0878
    121  N         10.9340    2.4510   26.1280 N.am  122  ASN122     -0.1974
    122  CA        11.5820    2.7950   24.8920 C.3   122  ASN122      0.1688
    123  C         10.7480    2.7000   23.6680 C.2   122  ASN122      0.2292
    124  O         11.2450    2.7530   22.5230 O.2   122  ASN122     -0.2864
    125  CB        13.0260    2.4790   24.7710 C.3   122  ASN122      0.1181
    126  CG        13.3150    0.9870   24.8690 C.2   122  ASN122      0.2629
    127  OD1       12.4030    0.1990   24.5830 O.2   122  ASN122     -0.2716
    128  ND2       14.5120    0.6370   25.3000 N.am  122  ASN122     -0.0877
    129  N          7.9560    4.8260   21.8310 N.3   124  LEU124     -0.1245
    130  CA         7.4490    6.1880   21.8110 C.3   124  LEU124      0.1561
    131  C          6.2940    6.3880   20.8610 C.2   124  LEU124      0.2260
    132  O          6.2680    5.8110   19.7720 O.2   124  LEU124     -0.2867
    133  CB         8.6130    7.1390   21.4920 C.3   124  LEU124      0.0270
    134  CG         9.8680    6.9340   22.3860 C.3   124  LEU124      0.0019
    135  CD1       10.8090    8.1220   22.1600 C.3   124  LEU124      0.0001
    136  CD2        9.4500    6.8630   23.8480 C.3   124  LEU124      0.0001
    137  N         12.9590    3.2690   20.1770 N.3   134  ALA134     -0.1245
    138  CA        14.0800    4.0970   20.5350 C.3   134  ALA134      0.1562
    139  C         15.2300    3.2630   21.1160 C.2   134  ALA134      0.2260
    140  O         14.9840    2.1680   21.6410 O.2   134  ALA134     -0.2867
    141  CB        13.6870    5.1680   21.5660 C.3   134  ALA134      0.0290
@<TRIPOS>BOND
     1    55    54   ar
     2    56    54   ar
     3    54    53    1
     4    32    33    2
     5    32    31    1
     6    52    53    1
     7    52    49    1
     8    30    31    1
     9    31    34    1
    10    49    48    1
    11    49    50    1
    12    48    39   am
    13    34    35    1
    14    34    36    1
    15    39    38    1
    16    39    40    2
    17    50    57   am
    18    50    51    2
    19    38    37    1
    20    38    41    1
    21    75    73    1
    22    57    58    1
    23    74    73    1
    24    60    59    2
    25    73    72    1
    26    44    46   ar
    27    44    42   ar
    28    46    47   ar
    29    41    42    1
    30    42    43   ar
    31    59    58    1
    32    59    68   am
    33    58    61    1
    34   132   131    2
    35    47    45   ar
    36    72    69    1
    37   137   138    1
    38    61    62    1
    39    84    82   ar
    40    84    85   ar
    41    69    68    1
    42    69    70    1
    43    43    45   ar
    44   138   139    1
    45   138   141    1
    46    82    81   ar
    47   131   130    1
    48    16    17    1
    49   139   140    2
    50    64    62   ar
    51    64    66   ar
    52    85    83   ar
    53    62    63   ar
    54   133   130    1
    55   133   134    1
    56    19    18    2
    57    70    76   am
    58    70    71    2
    59   130   129    1
    60    76    77    1
    61    81    83   ar
    62    81    80    1
    63   135   134    1
    64    66    67   ar
    65   134   136    1
    66    17    20    1
    67    17    18    1
    68   124   123    2
    69    63    65   ar
    70    80    77    1
    71    77    78    1
    72    67    65   ar
    73   123   122    1
    74    28    29    1
    75    28    27    1
    76    89    88    2
    77    86    78   am
    78    86    87    1
    79    78    79    2
    80    26    27    1
    81    26    25    1
    82    21    22    1
    83   127   126    2
    84    24    23    2
    85    25    22    1
    86   125   126    1
    87   125   122    1
    88   126   128   am
    89   122   121    1
    90    88    87    1
    91    88    95   am
    92    87    90    1
    93    90    91    1
    94    22    23    1
    95    96    95    1
    96    96    97    1
    97    96    99    1
    98   121   114   am
    99     8     6    1
   100    97    98    2
   101    91    92    1
   102    14    13    1
   103   115   114    2
   104    99   100    1
   105    92    94   am
   106    92    93    2
   107   114   113    1
   108     6     5    1
   109    13    15    1
   110    13    10    1
   111   112   113    1
   112   100   101   ar
   113   100   102   ar
   114   113   116    1
   115    10    11    1
   116    10     9    1
   117     7     5    1
   118    11    12    2
   119     5     2    1
   120   116   117    1
   121   105   104    1
   122   105   106    2
   123   103   104    1
   124     2     1    1
   125     2     3    1
   126   107   108    1
   127   107   104    1
   128   110   111    1
   129   110   109    1
   130   108   109    1
   131   117   118    1
   132     3     4    2
   133   118   120   am
   134   118   119    2
