@<TRIPOS>MOLECULE
tmp/1jszA01.pdb
 84 81 0 0 0
SMALL
GASTEIGER

@<TRIPOS>ATOM
      1  N         23.0350   19.3630   21.0580 N.3    22  TYR22      -0.1241
      2  CA        22.3190   18.3870   21.8570 C.3    22  TYR22       0.1605
      3  C         23.2570   17.4600   22.6480 C.2    22  TYR22       0.2264
      4  O         24.2250   16.9170   22.1070 O.2    22  TYR22      -0.2867
      5  CB        21.3800   17.5710   20.9570 C.3    22  TYR22       0.0534
      6  CG        20.6950   16.4270   21.6680 C.ar   22  TYR22      -0.0201
      7  CD1       19.7330   16.6620   22.6500 C.ar   22  TYR22      -0.0009
      8  CD2       21.0710   15.1170   21.4210 C.ar   22  TYR22      -0.0009
      9  CE1       19.1780   15.6210   23.3710 C.ar   22  TYR22       0.0417
     10  CE2       20.5280   14.0740   22.1330 C.ar   22  TYR22       0.0417
     11  CZ        19.5870   14.3290   23.1070 C.ar   22  TYR22       0.1957
     12  OH        19.0820   13.2820   23.8270 O.3    22  TYR22      -0.2866
     13  N         23.2040   14.0570   24.5840 N.3    24  PRO24      -0.2116
     14  CA        22.4900   12.7970   24.8150 C.3    24  PRO24       0.1372
     15  C         22.3110   12.4320   26.2790 C.2    24  PRO24       0.2244
     16  O         21.3620   11.7310   26.6310 O.2    24  PRO24      -0.2868
     17  CB        23.3560   11.7700   24.0850 C.3    24  PRO24       0.0268
     18  CG        24.7040   12.4220   24.0230 C.3    24  PRO24       0.0207
     19  CD        24.3540   13.8350   23.6940 C.3    24  PRO24       0.0892
     20  N         19.0140   12.8530   28.3030 N.3    27  ALA27      -0.1245
     21  CA        17.9410   11.8590   28.1900 C.3    27  ALA27       0.1562
     22  C         17.7760   11.0380   29.4600 C.2    27  ALA27       0.2260
     23  O         16.7460   10.4060   29.6570 O.2    27  ALA27      -0.2867
     24  CB        18.1970   10.9390   27.0140 C.3    27  ALA27       0.0290
     25  N         14.7480   12.7690   14.7740 N.3   174  PHE174     -0.1241
     26  CA        16.1040   13.2100   15.0820 C.3   174  PHE174      0.1605
     27  C         17.0640   13.0540   13.9110 C.2   174  PHE174      0.2264
     28  O         17.0500   12.0360   13.2280 O.2   174  PHE174     -0.2867
     29  CB        16.6010   12.5390   16.3560 C.3   174  PHE174      0.0534
     30  CG        15.7080   12.8040   17.5450 C.ar  174  PHE174     -0.0203
     31  CD1       15.3190   14.1090   17.8610 C.ar  174  PHE174     -0.0042
     32  CD2       15.2130   11.7570   18.3080 C.ar  174  PHE174     -0.0042
     33  CE1       14.4560   14.3650   18.9190 C.ar  174  PHE174     -0.0003
     34  CE2       14.3460   11.9980   19.3730 C.ar  174  PHE174     -0.0003
     35  CZ        13.9640   13.3100   19.6790 C.ar  174  PHE174     -0.0000
     36  N         20.1490   12.2500   13.4910 N.3   176  ASP176     -0.1225
     37  CA        20.9350   11.0230   13.4310 C.3   176  ASP176      0.1805
     38  C         20.0900    9.7740   13.1500 C.2   176  ASP176      0.2597
     39  O         20.6030    8.6530   13.1110 O.2   176  ASP176     -0.2718
     40  CB        21.7720   10.8580   14.7120 C.3   176  ASP176      0.1424
     41  CG        20.9240   10.6940   15.9710 C.2   176  ASP176      0.3668
     42  OD1       19.7400   11.1020   15.9820 O.co2 176  ASP176     -0.2456
     43  OD2       21.4650   10.1600   16.9650 O.co2 176  ASP176     -0.2456
     44  N         18.7990    9.9820   12.9390 N.am  177  GLN177     -0.1979
     45  CA        17.8630    8.9050   12.6540 C.3   177  GLN177      0.1601
     46  C         16.9790    9.2970   11.4700 C.2   177  GLN177      0.2287
     47  O         15.7970    8.9360   11.4140 O.2   177  GLN177     -0.2864
     48  CB        16.9710    8.6530   13.8600 C.3   177  GLN177      0.0394
     49  CG        17.6740    8.0790   15.0520 C.3   177  GLN177      0.0908
     50  CD        16.7520    7.9750   16.2420 C.2   177  GLN177      0.2608
     51  OE1       17.0530    8.4990   17.3110 O.2   177  GLN177     -0.2717
     52  NE2       15.6060    7.3260   16.0610 N.am  177  GLN177     -0.0878
     53  N         13.1400   17.5630   28.4190 N.3   198  TYR198     -0.1227
     54  CA        13.9140   17.6490   27.1850 C.3   198  TYR198      0.1736
     55  C         13.1480   17.3360   25.9190 C.2   198  TYR198      0.2596
     56  O         13.7490   17.0580   24.8720 O.2   198  TYR198     -0.2718
     57  CB        15.1620   16.7720   27.3160 C.3   198  TYR198      0.0548
     58  CG        16.1240   17.4120   28.2680 C.ar  198  TYR198     -0.0200
     59  CD1       16.8690   18.5200   27.8670 C.ar  198  TYR198     -0.0009
     60  CD2       16.1810   17.0300   29.5990 C.ar  198  TYR198     -0.0009
     61  CE1       17.6250   19.2390   28.7590 C.ar  198  TYR198      0.0417
     62  CE2       16.9440   17.7500   30.5070 C.ar  198  TYR198      0.0417
     63  CZ        17.6610   18.8580   30.0730 C.ar  198  TYR198      0.1957
     64  OH        18.4170   19.6000   30.9520 O.3   198  TYR198     -0.2866
     65  N         11.8230   17.4730   25.9950 N.am  199  SER199     -0.1938
     66  CA        10.9400   17.2090   24.8660 C.3   199  SER199      0.2055
     67  C         11.1240   18.2280   23.7300 C.2   199  SER199      0.2642
     68  O         11.2500   19.4420   23.9630 O.2   199  SER199     -0.2714
     69  CB         9.4810   17.2130   25.3470 C.3   199  SER199      0.2130
     70  OG         8.5560   16.9440   24.3060 O.3   199  SER199     -0.2179
     71  N         11.1440   17.7260   22.5000 N.am  200  ALA200     -0.1977
     72  CA        11.2750   18.5980   21.3450 C.3   200  ALA200      0.1597
     73  C          9.9230   18.6920   20.6410 C.2   200  ALA200      0.2287
     74  O          9.8260   19.1900   19.5160 O.2   200  ALA200     -0.2864
     75  CB        12.3470   18.0640   20.4120 C.3   200  ALA200      0.0319
     76  N         16.5180   20.2860   16.6000 N.3   227  GLU227     -0.1245
     77  CA        17.2870   19.6840   17.6730 C.3   227  GLU227      0.1567
     78  C         18.0530   20.7050   18.5190 C.2   227  GLU227      0.2260
     79  O         17.9690   20.6870   19.7470 O.2   227  GLU227     -0.2867
     80  CB        18.2710   18.6650   17.1140 C.3   227  GLU227      0.0388
     81  CG        19.0790   17.9320   18.1630 C.3   227  GLU227      0.1160
     82  CD        20.0440   16.9560   17.5540 C.2   227  GLU227      0.3649
     83  OE1       19.8670   15.7400   17.6550 O.co2 227  GLU227     -0.2457
     84  OE2       21.0670   17.4760   16.8980 O.co2 227  GLU227     -0.2457
@<TRIPOS>BOND
     1    47    46    2
     2    46    45    1
     3    45    44    1
     4    45    48    1
     5    44    38   am
     6    39    38    2
     7    38    37    1
     8    28    27    2
     9    37    36    1
    10    37    40    1
    11    48    49    1
    12    27    26    1
    13    40    41    1
    14    25    26    1
    15    49    50    1
    16    26    29    1
    17    41    42   ar
    18    41    43   ar
    19    52    50   am
    20    50    51    2
    21    29    30    1
    22    76    77    1
    23    84    82   ar
    24    80    77    1
    25    80    81    1
    26    30    31   ar
    27    30    32   ar
    28    82    83   ar
    29    82    81    1
    30    77    78    1
    31    31    33   ar
    32    32    34   ar
    33    78    79    2
    34    33    35   ar
    35    34    35   ar
    36    74    73    2
    37    75    72    1
    38    73    72    1
    39     5     6    1
    40     5     2    1
    41     1     2    1
    42    72    71    1
    43     8     6   ar
    44     8    10   ar
    45     6     7   ar
    46     2     3    1
    47     4     3    2
    48    10    11   ar
    49    71    67   am
    50     7     9   ar
    51    11     9   ar
    52    11    12    1
    53    19    18    1
    54    19    13    1
    55    67    68    2
    56    67    66    1
    57    18    17    1
    58    17    14    1
    59    70    69    1
    60    13    14    1
    61    14    15    1
    62    66    69    1
    63    66    65    1
    64    56    55    2
    65    55    65   am
    66    55    54    1
    67    15    16    2
    68    24    21    1
    69    54    57    1
    70    54    53    1
    71    57    58    1
    72    59    58   ar
    73    59    61   ar
    74    21    20    1
    75    21    22    1
    76    58    60   ar
    77    61    63   ar
    78    22    23    2
    79    60    62   ar
    80    63    62   ar
    81    63    64    1
