@<TRIPOS>MOLECULE
tmp/1jt1A00.pdb
 106 101 0 0 0
SMALL
GASTEIGER

@<TRIPOS>ATOM
      1  N         15.6080    4.3920   12.4170 N.3    70  HIS70      -0.1241
      2  CA        15.1740    5.5370   13.2110 C.3    70  HIS70       0.1621
      3  C         16.2780    5.9460   14.1620 C.2    70  HIS70       0.2264
      4  O         17.2300    5.1750   14.4160 O.2    70  HIS70      -0.2867
      5  CB        13.8480    5.2510   13.9710 C.3    70  HIS70       0.0745
      6  CG        13.9590    4.1930   15.0330 C.ar   70  HIS70       0.0817
      7  ND1       13.5300    2.9000   14.8290 N.ar   70  HIS70      -0.2268
      8  CD2       14.3670    4.2630   16.3250 C.ar   70  HIS70       0.1154
      9  CE1       13.6660    2.2120   15.9630 C.ar   70  HIS70       0.1986
     10  NE2       14.1750    3.0190   16.8790 N.ar   70  HIS70      -0.2212
     11  N          7.2780    6.2520   17.0430 N.3   148  HIS148     -0.1241
     12  CA         8.3460    5.6180   17.8440 C.3   148  HIS148      0.1621
     13  C          9.5360    6.6110   17.9490 C.2   148  HIS148      0.2264
     14  O         10.1670    6.7180   19.0150 O.2   148  HIS148     -0.2867
     15  CB         8.7300    4.2680   17.2470 C.3   148  HIS148      0.0745
     16  CG         9.8470    3.6100   17.9790 C.ar  148  HIS148      0.0817
     17  ND1        9.6480    2.8210   19.0890 N.ar  148  HIS148     -0.2268
     18  CD2       11.1820    3.6840   17.7960 C.ar  148  HIS148      0.1154
     19  CE1       10.8120    2.4230   19.5590 C.ar  148  HIS148      0.1986
     20  NE2       11.7590    2.9370   18.7930 N.ar  148  HIS148     -0.2212
     21  N          9.8070    0.7170   12.9870 N.3   173  SER173     -0.1202
     22  CA         9.2470    0.4660   14.3200 C.3   173  SER173      0.2020
     23  C          8.0140    1.2790   14.6220 C.2   173  SER173      0.2619
     24  O          8.0490    2.5150   14.4530 O.2   173  SER173     -0.2717
     25  CB        10.2190    0.7670   15.4510 C.3   173  SER173      0.2103
     26  OG         9.5380    0.4640   16.6960 O.3   173  SER173     -0.2182
     27  N          6.9290    0.6100   15.0530 N.am  174  ILE174     -0.1965
     28  CA         5.7580    1.3680   15.5340 C.3   174  ILE174      0.1727
     29  C          5.4770    0.9020   16.9770 C.2   174  ILE174      0.2616
     30  O          4.3500    0.9420   17.4970 O.2   174  ILE174     -0.2715
     31  CB         4.4990    1.2480   14.6600 C.3   174  ILE174      0.0290
     32  CG1        4.1820   -0.2070   14.3190 C.3   174  ILE174      0.0022
     33  CG2        4.7080    2.0930   13.3640 C.3   174  ILE174      0.0023
     34  CD1        2.7190   -0.3330   13.7290 C.3   174  ILE174      0.0001
     35  N          6.5420    0.4780   17.6550 N.am  175  GLY175     -0.1955
     36  CA         6.3370    0.0650   19.0440 C.3   175  GLY175      0.1869
     37  C          6.2900    1.2770   19.9980 C.2   175  GLY175      0.2309
     38  O          6.8890    2.3250   19.7490 O.2   175  GLY175     -0.2863
     39  N          7.5370    2.4860   23.4180 N.3   177  ASN177     -0.1240
     40  CA         8.5340    2.1240   24.4340 C.3   177  ASN177      0.1653
     41  C          7.9500    2.3340   25.8410 C.2   177  ASN177      0.2266
     42  O          7.1300    3.2400   26.0590 O.2   177  ASN177     -0.2867
     43  CB         9.8020    2.9500   24.2570 C.3   177  ASN177      0.1155
     44  CG        10.7120    2.3660   23.2140 C.2   177  ASN177      0.2627
     45  OD1       10.4060    1.3390   22.5670 O.2   177  ASN177     -0.2716
     46  ND2       11.8680    2.9790   23.0560 N.am  177  ASN177     -0.0877
     47  N         14.4900   -4.7740   14.0420 N.3   214  HIS214     -0.1241
     48  CA        14.9510   -5.8210   14.9950 C.3   214  HIS214      0.1621
     49  C         14.5770   -7.1870   14.4440 C.2   214  HIS214      0.2264
     50  O         13.4460   -7.3780   13.9520 O.2   214  HIS214     -0.2867
     51  CB        14.3060   -5.6870   16.3910 C.3   214  HIS214      0.0745
     52  CG        14.7930   -4.4940   17.1610 C.ar  214  HIS214      0.0817
     53  ND1       15.7510   -4.5800   18.1590 N.ar  214  HIS214     -0.2268
     54  CD2       14.4230   -3.1900   17.0990 C.ar  214  HIS214      0.1154
     55  CE1       15.9280   -3.3810   18.6990 C.ar  214  HIS214      0.1986
     56  NE2       15.1330   -2.5220   18.0750 N.ar  214  HIS214     -0.2212
     57  N         13.6860   -9.8920   15.8530 N.3   216  GLY216     -0.1210
     58  CA        12.4810  -10.4660   16.4600 C.3   216  GLY216      0.1956
     59  C         11.1680  -10.0240   15.8280 C.2   216  GLY216      0.2611
     60  O         10.1500  -10.7140   15.9320 O.2   216  GLY216     -0.2717
     61  N         11.1720   -8.8790   15.1530 N.am  217  MET217     -0.1979
     62  CA         9.9420   -8.4360   14.5600 C.3   217  MET217      0.1605
     63  C          9.4510   -9.3620   13.4820 C.2   217  MET217      0.2287
     64  O          8.2410   -9.5290   13.3070 O.2   217  MET217     -0.2864
     65  CB        10.1250   -7.0450   13.8970 C.3   217  MET217      0.0413
     66  CG        10.4850   -5.9790   14.8970 C.3   217  MET217      0.0598
     67  SD        10.9050   -4.4960   13.9120 S.3   217  MET217     -0.1393
     68  CE        10.8760   -3.2050   15.1670 C.3   217  MET217      0.0692
     69  N          1.8000   -8.8850   11.7530 N.3   244  TYR244     -0.1241
     70  CA         2.6620   -8.1020   12.6250 C.3   244  TYR244      0.1605
     71  C          2.1870   -6.6470   12.7140 C.2   244  TYR244      0.2264
     72  O          2.1100   -6.0590   13.8110 O.2   244  TYR244     -0.2867
     73  CB         4.1050   -8.1280   12.1260 C.3   244  TYR244      0.0534
     74  CG         5.0270   -7.2980   12.9680 C.ar  244  TYR244     -0.0201
     75  CD1        5.3840   -7.7040   14.2650 C.ar  244  TYR244     -0.0009
     76  CD2        5.4770   -6.0640   12.5180 C.ar  244  TYR244     -0.0009
     77  CE1        6.1620   -6.8650   15.1100 C.ar  244  TYR244      0.0417
     78  CE2        6.2430   -5.2460   13.3310 C.ar  244  TYR244      0.0417
     79  CZ         6.5780   -5.6360   14.6090 C.ar  244  TYR244      0.1957
     80  OH         7.2830   -4.7690   15.3740 O.3   244  TYR244     -0.2866
     81  N         -0.9130   -6.5660   14.7910 N.3   247  GLN247     -0.1231
     82  CA        -0.6140   -6.7220   16.1980 C.3   247  GLN247      0.1698
     83  C         -0.0570   -5.4200   16.8200 C.2   247  GLN247      0.2592
     84  O         -0.4640   -5.0260   17.9160 O.2   247  GLN247     -0.2718
     85  CB         0.4430   -7.8150   16.4040 C.3   247  GLN247      0.0381
     86  CG         0.7600   -8.0410   17.8880 C.3   247  GLN247      0.0905
     87  CD        -0.4810   -8.5360   18.6350 C.2   247  GLN247      0.2608
     88  OE1       -1.0480   -9.5830   18.2390 O.2   247  GLN247     -0.2717
     89  NE2       -0.9400   -7.8010   19.6840 N.am  247  GLN247     -0.0878
     90  N          0.8690   -4.7710   16.1210 N.am  248  LYS248     -0.1980
     91  CA         1.4620   -3.5710   16.6690 C.3   248  LYS248      0.1596
     92  C          0.4790   -2.4190   16.6940 C.2   248  LYS248      0.2287
     93  O          0.5140   -1.6200   17.6220 O.2   248  LYS248     -0.2864
     94  CB         2.7480   -3.1630   15.9060 C.3   248  LYS248      0.0298
     95  CG         3.8930   -4.2190   15.9940 C.3   248  LYS248      0.0038
     96  CD         4.2220   -4.6080   17.4480 C.3   248  LYS248      0.0206
     97  CE         4.4770   -3.4010   18.3790 C.3   248  LYS248      0.1093
     98  NZ         4.7650   -3.8310   19.7980 N.3   248  LYS248     -0.1314
     99  N         -1.4200   -3.1220   19.6290 N.3   251  ASP251     -0.1239
    100  CA        -0.6700   -2.8380   20.8630 C.3   251  ASP251      0.1674
    101  C         -0.6880   -1.3200   21.1310 C.2   251  ASP251      0.2266
    102  O         -0.7580   -0.8930   22.2810 O.2   251  ASP251     -0.2867
    103  CB         0.8050   -3.2930   20.7960 C.3   251  ASP251      0.1410
    104  CG         0.9480   -4.8040   20.7370 C.2   251  ASP251      0.3668
    105  OD1       -0.0510   -5.5010   21.0500 O.co2 251  ASP251     -0.2456
    106  OD2        2.0520   -5.2730   20.3590 O.co2 251  ASP251     -0.2456
@<TRIPOS>BOND
     1    69    70    1
     2    73    70    1
     3    73    74    1
     4     1     2    1
     5    76    74   ar
     6    76    78   ar
     7    70    71    1
     8    71    72    2
     9    74    75   ar
    10    21    22    1
    11     2     5    1
    12     2     3    1
    13    64    63    2
    14    78    79   ar
    15    33    31    1
    16    63    62    1
    17    34    32    1
    18    65    62    1
    19    65    66    1
    20    67    66    1
    21    67    68    1
    22    50    49    2
    23     5     6    1
    24    47    48    1
    25     3     4    2
    26    75    77   ar
    27    32    31    1
    28    22    23    1
    29    22    25    1
    30    49    48    1
    31    24    23    2
    32    62    61    1
    33    79    77   ar
    34    79    80    1
    35    23    27   am
    36    31    28    1
    37    81    82    1
    38     7     6   ar
    39     7     9   ar
    40    48    51    1
    41     6     8   ar
    42    27    28    1
    43    61    59   am
    44    25    26    1
    45    28    29    1
    46    59    60    2
    47    59    58    1
    48    57    58    1
    49    94    95    1
    50    94    91    1
    51     9    10   ar
    52    95    96    1
    53    90    91    1
    54    90    83   am
    55    82    85    1
    56    82    83    1
    57     8    10   ar
    58    51    52    1
    59    85    86    1
    60    91    92    1
    61    92    93    2
    62    83    84    2
    63    29    30    2
    64    29    35   am
    65    11    12    1
    66    54    52   ar
    67    54    56   ar
    68    52    53   ar
    69    15    12    1
    70    15    16    1
    71    96    97    1
    72    35    36    1
    73    18    16   ar
    74    18    20   ar
    75    12    13    1
    76    86    87    1
    77    13    14    2
    78    16    17   ar
    79    56    55   ar
    80    53    55   ar
    81    88    87    2
    82    97    98    1
    83    87    89   am
    84    20    19   ar
    85    36    37    1
    86    17    19   ar
    87    99   100    1
    88    38    37    2
    89   106   104   ar
    90   104   103    1
    91   104   105   ar
    92   103   100    1
    93   100   101    1
    94   101   102    2
    95    45    44    2
    96    46    44   am
    97    44    43    1
    98    39    40    1
    99    43    40    1
   100    40    41    1
   101    41    42    2
