@<TRIPOS>MOLECULE
tmp/1jt2A00.pdb
 85 83 0 0 0
SMALL
GASTEIGER

@<TRIPOS>ATOM
      1  N        -66.4560  -26.8080   -3.3830 N.3    60  GLY60      -0.1210
      2  CA       -67.8960  -26.6280   -3.2590 C.3    60  GLY60       0.1956
      3  C        -68.4760  -26.9840   -1.8990 C.2    60  GLY60       0.2611
      4  O        -67.7510  -27.3440   -0.9780 O.2    60  GLY60      -0.2717
      5  N        -69.7950  -26.9040   -1.7660 N.am   61  ILE61      -0.1979
      6  CA       -70.4150  -27.1880   -0.4800 C.3    61  ILE61       0.1595
      7  C        -70.1800  -28.6240   -0.0100 C.2    61  ILE61       0.2287
      8  O        -70.3050  -29.5800   -0.7850 O.2    61  ILE61      -0.2864
      9  CB       -71.9320  -26.8550   -0.5140 C.3    61  ILE61       0.0276
     10  CG1      -72.4660  -26.7410    0.9170 C.3    61  ILE61       0.0022
     11  CG2      -72.6930  -27.9110   -1.2930 C.3    61  ILE61       0.0022
     12  CD1      -73.8390  -26.0980    1.0080 C.3    61  ILE61       0.0001
     13  N        -65.2000  -23.2050   -7.2340 N.3   142  LEU142     -0.1231
     14  CA       -66.3570  -23.8020   -7.8850 C.3   142  LEU142      0.1693
     15  C        -67.5910  -23.7730   -6.9910 C.2   142  LEU142      0.2592
     16  O        -67.5100  -24.0310   -5.7820 O.2   142  LEU142     -0.2718
     17  CB       -66.0420  -25.2530   -8.2850 C.3   142  LEU142      0.0284
     18  CG       -65.7800  -26.2670   -7.1630 C.3   142  LEU142      0.0019
     19  CD1      -67.1000  -26.9120   -6.7280 C.3   142  LEU142      0.0001
     20  CD2      -64.8180  -27.3350   -7.6540 C.3   142  LEU142      0.0001
     21  N        -68.7310  -23.4500   -7.5980 N.am  143  ALA143     -0.1966
     22  CA       -70.0120  -23.4090   -6.9030 C.3   143  ALA143      0.1728
     23  C        -69.9860  -22.5950   -5.6070 C.2   143  ALA143      0.2616
     24  O        -69.7920  -21.3820   -5.6410 O.2   143  ALA143     -0.2715
     25  CB       -70.4820  -24.8400   -6.6350 C.3   143  ALA143      0.0334
     26  N        -70.2010  -23.2490   -4.4680 N.am  144  MET144     -0.1977
     27  CA       -70.1810  -22.5390   -3.1870 C.3   144  MET144      0.1605
     28  C        -68.8660  -21.7620   -3.0860 C.2   144  MET144      0.2287
     29  O        -68.8280  -20.6390   -2.5760 O.2   144  MET144     -0.2864
     30  CB       -70.2970  -23.5350   -2.0250 C.3   144  MET144      0.0413
     31  CG       -70.6250  -22.9020   -0.6700 C.3   144  MET144      0.0598
     32  SD       -72.3760  -22.4280   -0.4800 S.3   144  MET144     -0.1393
     33  CE       -72.3860  -21.8260    1.2020 C.3   144  MET144      0.0692
     34  N        -72.4830  -20.2650   -6.7010 N.3   169  ALA169     -0.1231
     35  CA       -73.7390  -20.6520   -6.0590 C.3   169  ALA169      0.1679
     36  C        -74.5160  -19.4800   -5.4500 C.2   169  ALA169      0.2434
     37  O        -74.0270  -18.3510   -5.4050 O.2   169  ALA169     -0.2733
     38  CB       -73.4530  -21.7120   -4.9890 C.3   169  ALA169      0.0304
     39  N        -75.7530  -19.7400   -4.9860 N.am  170  PRO170     -0.2718
     40  CA       -76.6330  -18.7380   -4.3760 C.3   170  PRO170      0.1535
     41  C        -76.0700  -18.0230   -3.1510 C.2   170  PRO170      0.2598
     42  O        -76.6690  -17.0580   -2.6680 O.2   170  PRO170     -0.2715
     43  CB       -77.8880  -19.5420   -4.0390 C.3   170  PRO170      0.0310
     44  CG       -77.9270  -20.5580   -5.1340 C.3   170  PRO170      0.0237
     45  CD       -76.4830  -21.0050   -5.1920 C.3   170  PRO170      0.0939
     46  N        -74.9400  -18.4940   -2.6290 N.am  171  ASN171     -0.1973
     47  CA       -74.3550  -17.8280   -1.4730 C.3   171  ASN171      0.1688
     48  C        -73.6910  -16.5290   -1.9220 C.2   171  ASN171      0.2292
     49  O        -73.2710  -15.7150   -1.0990 O.2   171  ASN171     -0.2864
     50  CB       -73.3510  -18.7450   -0.7570 C.3   171  ASN171      0.1181
     51  CG       -72.1970  -19.1570   -1.6390 C.2   171  ASN171      0.2629
     52  OD1      -72.3860  -19.5310   -2.7980 O.2   171  ASN171     -0.2716
     53  ND2      -70.9870  -19.1100   -1.0880 N.am  171  ASN171     -0.0877
     54  N        -77.6700  -23.5070  -11.7870 N.3   203  LEU203     -0.1245
     55  CA       -77.2770  -22.3290  -11.0100 C.3   203  LEU203      0.1561
     56  C        -76.6980  -21.2190  -11.8860 C.2   203  LEU203      0.2260
     57  O        -76.1510  -20.2420  -11.3750 O.2   203  LEU203     -0.2867
     58  CB       -76.2360  -22.7080   -9.9530 C.3   203  LEU203      0.0270
     59  CG       -76.6200  -23.7370   -8.8880 C.3   203  LEU203      0.0019
     60  CD1      -75.4540  -23.9290   -7.9320 C.3   203  LEU203      0.0001
     61  CD2      -77.8550  -23.2680   -8.1340 C.3   203  LEU203      0.0001
     62  N        -72.8650  -29.2620  -13.7890 N.3   231  HIS231     -0.1241
     63  CA       -72.2990  -28.9250  -12.4880 C.3   231  HIS231      0.1621
     64  C        -71.2910  -30.0050  -12.0980 C.2   231  HIS231      0.2264
     65  O        -71.5200  -30.7640  -11.1560 O.2   231  HIS231     -0.2867
     66  CB       -73.4210  -28.8620  -11.4530 C.3   231  HIS231      0.0745
     67  CG       -73.0750  -28.0820  -10.2220 C.ar  231  HIS231      0.0817
     68  ND1      -72.9230  -26.7120  -10.2280 N.ar  231  HIS231     -0.2268
     69  CD2      -72.8780  -28.4770   -8.9420 C.ar  231  HIS231      0.1154
     70  CE1      -72.6510  -26.2960   -9.0030 C.ar  231  HIS231      0.1986
     71  NE2      -72.6190  -27.3480   -8.2040 N.ar  231  HIS231     -0.2212
     72  N        -65.3680  -27.3300  -14.2770 N.3   236  TRP236     -0.1241
     73  CA       -64.4160  -26.7460  -13.3470 C.3   236  TRP236      0.1605
     74  C        -62.9550  -26.8910  -13.7630 C.2   236  TRP236      0.2264
     75  O        -62.1660  -25.9710  -13.5600 O.2   236  TRP236     -0.2867
     76  CB       -64.6620  -27.2990  -11.9380 C.3   236  TRP236      0.0550
     77  CG       -66.0870  -27.0470  -11.4930 C.ar  236  TRP236      0.0003
     78  CD1      -66.8450  -25.9420  -11.7730 C.ar  236  TRP236      0.0946
     79  CD2      -66.9330  -27.9300  -10.7400 C.ar  236  TRP236      0.0152
     80  NE1      -68.1060  -26.0860  -11.2520 N.ar  236  TRP236     -0.2442
     81  CE2      -68.1890  -27.2940  -10.6120 C.ar  236  TRP236      0.0810
     82  CE3      -66.7520  -29.1970  -10.1620 C.ar  236  TRP236      0.0012
     83  CZ2      -69.2620  -27.8820   -9.9330 C.ar  236  TRP236      0.0191
     84  CZ3      -67.8190  -29.7820   -9.4860 C.ar  236  TRP236      0.0001
     85  CH2      -69.0600  -29.1220   -9.3790 C.ar  236  TRP236      0.0015
@<TRIPOS>BOND
     1    72    73    1
     2    62    63    1
     3    74    75    2
     4    74    73    1
     5    73    76    1
     6    63    64    1
     7    63    66    1
     8    64    65    2
     9    76    77    1
    10    56    57    2
    11    56    55    1
    12    54    55    1
    13    78    77   ar
    14    78    80   ar
    15    77    79   ar
    16    66    67    1
    17    80    81   ar
    18    55    58    1
    19    79    81   ar
    20    79    82   ar
    21    81    83   ar
    22    68    67   ar
    23    68    70   ar
    24    67    69   ar
    25    82    84   ar
    26    58    59    1
    27    83    85   ar
    28    84    85   ar
    29    70    71   ar
    30    69    71   ar
    31    59    61    1
    32    59    60    1
    33    17    14    1
    34    17    18    1
    35    14    13    1
    36    14    15    1
    37    20    18    1
    38    21    15   am
    39    21    22    1
    40    18    19    1
    41    15    16    2
    42    22    25    1
    43    22    23    1
    44    34    35    1
    45    35    36    1
    46    35    38    1
    47    24    23    2
    48    23    26   am
    49    36    37    2
    50    36    39   am
    51    45    44    1
    52    45    39    1
    53    44    43    1
    54    39    40    1
    55    26    27    1
    56    40    43    1
    57    40    41    1
    58     1     2    1
    59     2     3    1
    60    27    28    1
    61    27    30    1
    62    41    42    2
    63    41    46   am
    64    28    29    2
    65    52    51    2
    66    46    47    1
    67    30    31    1
    68    48    47    1
    69    48    49    2
    70     3     5   am
    71     3     4    2
    72     5     6    1
    73    51    53   am
    74    51    50    1
    75    47    50    1
    76    11     9    1
    77     8     7    2
    78    31    32    1
    79     9     6    1
    80     9    10    1
    81     6     7    1
    82    32    33    1
    83    10    12    1
