@<TRIPOS>MOLECULE
tmp/1jtbA00.pdb
 111 104 0 0 0
SMALL
GASTEIGER

@<TRIPOS>ATOM
      1  N         -9.2540    7.9760   10.6400 N.3     1  LEU1       -0.1231
      2  CA        -9.4540    6.5330   10.9770 C.3     1  LEU1        0.1693
      3  C         -9.7640    5.8440    9.6380 C.2     1  LEU1        0.2592
      4  O        -10.9060    5.5490    9.3550 O.2     1  LEU1       -0.2718
      5  CB       -10.6440    6.3930   11.9740 C.3     1  LEU1        0.0284
      6  CG       -10.4080    7.0630   13.3610 C.3     1  LEU1        0.0019
      7  CD1       -9.1730    6.4490   14.0240 C.3     1  LEU1        0.0001
      8  CD2      -10.1800    8.5870   13.2720 C.3     1  LEU1        0.0001
      9  N         -8.7650    5.6000    8.8460 N.am    2  ASN2       -0.1960
     10  CA        -8.9550    4.9630    7.5210 C.3     2  ASN2        0.1819
     11  C         -7.5790    4.6780    6.8820 C.2     2  ASN2        0.2621
     12  O         -7.2970    3.5750    6.4440 O.2     2  ASN2       -0.2715
     13  CB        -9.7940    5.9640    6.7150 C.3     2  ASN2        0.1195
     14  CG       -10.0310    5.4050    5.3640 C.2     2  ASN2        0.2630
     15  OD1      -10.5290    4.3170    5.2190 O.2     2  ASN2       -0.2716
     16  ND2       -9.7090    6.0630    4.3100 N.am    2  ASN2       -0.0877
     17  N         -6.7640    5.7060    6.8850 N.am    3  CYS3       -0.1954
     18  CA        -5.3950    5.5820    6.2930 C.3     3  CYS3        0.1843
     19  C         -4.3190    5.3990    7.3940 C.2     3  CYS3        0.2626
     20  O         -3.2990    6.0590    7.4040 O.2     3  CYS3       -0.2714
     21  CB        -5.0330    6.8670    5.4300 C.3     3  CYS3        0.0997
     22  SG        -5.7720    7.2230    3.8110 S.3     3  CYS3       -0.0797
     23  N         -4.5810    4.4880    8.2940 N.am    4  GLY4       -0.1954
     24  CA        -3.6570    4.1530    9.4380 C.3     4  GLY4        0.1869
     25  C         -3.0790    2.8130    9.0450 C.2     4  GLY4        0.2309
     26  O         -1.8770    2.6350    8.9860 O.2     4  GLY4       -0.2863
     27  N         -2.8600    1.6010    6.3930 N.3     6  VAL6       -0.1231
     28  CA        -2.0660    2.0650    5.2110 C.3     6  VAL6        0.1692
     29  C         -0.5900    1.7290    5.4070 C.2     6  VAL6        0.2592
     30  O          0.0860    0.9880    4.7150 O.2     6  VAL6       -0.2718
     31  CB        -2.3770    3.5930    5.1460 C.3     6  VAL6        0.0266
     32  CG1       -1.2670    4.3980    4.4940 C.3     6  VAL6        0.0020
     33  CG2       -3.6050    3.8320    4.2870 C.3     6  VAL6        0.0020
     34  N         -0.1750    2.3390    6.4640 N.am    7  ASP7       -0.1974
     35  CA         1.1860    2.2730    6.9760 C.3     7  ASP7        0.1709
     36  C          1.4960    1.0440    7.8260 C.2     7  ASP7        0.2293
     37  O          2.4740    0.3610    7.5680 O.2     7  ASP7       -0.2864
     38  CB         1.3000    3.5410    7.7230 C.3     7  ASP7        0.1436
     39  CG         2.7290    3.6210    8.2000 C.2     7  ASP7        0.3671
     40  OD1        3.5430    3.8110    7.3140 O.co2   7  ASP7       -0.2456
     41  OD2        2.9860    3.4730    9.3830 O.co2   7  ASP7       -0.2456
     42  N          2.0510   -1.2620    5.1200 N.3    10  MET10      -0.1230
     43  CA         2.9530   -1.0360    3.9620 C.3    10  MET10       0.1702
     44  C          4.1100   -0.0680    4.1440 C.2    10  MET10       0.2592
     45  O          4.7860    0.2440    3.1780 O.2    10  MET10      -0.2718
     46  CB         2.0330   -0.6090    2.8540 C.3    10  MET10       0.0401
     47  CG         1.0380   -1.7600    2.5940 C.3    10  MET10       0.0596
     48  SD         0.5870   -2.0540    0.8720 S.3    10  MET10      -0.1393
     49  CE         2.2790   -2.1910    0.2510 C.3    10  MET10       0.0692
     50  N          4.3040    0.4150    5.3480 N.am   11  LYS11      -0.1980
     51  CA         5.4270    1.3470    5.6400 C.3    11  LYS11       0.1596
     52  C          6.7010    0.9180    4.8350 C.2    11  LYS11       0.2287
     53  O          7.2040    1.6740    4.0190 O.2    11  LYS11      -0.2864
     54  CB         5.5870    1.2720    7.1790 C.3    11  LYS11       0.0298
     55  CG         7.0250    1.5970    7.6370 C.3    11  LYS11       0.0038
     56  CD         7.4080    3.0590    7.3090 C.3    11  LYS11       0.0206
     57  CE         6.4130    4.1230    7.7830 C.3    11  LYS11       0.1093
     58  NZ         5.7130    3.6810    9.0360 N.3    11  LYS11      -0.1314
     59  N          6.2600    1.4230    1.0030 N.3    14  LEU14      -0.1231
     60  CA         6.3520    2.8000    0.4290 C.3    14  LEU14       0.1693
     61  C          7.8390    3.1560    0.6230 C.2    14  LEU14       0.2592
     62  O          8.4590    3.5760   -0.3310 O.2    14  LEU14      -0.2718
     63  CB         5.5280    3.8860    1.1690 C.3    14  LEU14       0.0284
     64  CG         5.7720    5.2170    0.3280 C.3    14  LEU14       0.0019
     65  CD1        5.0280    5.1680   -1.0250 C.3    14  LEU14       0.0001
     66  CD2        5.3100    6.4640    1.0460 C.3    14  LEU14       0.0001
     67  N          8.3660    2.9960    1.8320 N.am   15  THR15      -0.1953
     68  CA         9.8360    3.3150    2.0830 C.3    15  THR15       0.1897
     69  C         10.5560    2.7610    0.8690 C.2    15  THR15       0.2313
     70  O         11.1750    3.5150    0.1480 O.2    15  THR15      -0.2863
     71  CB        10.3800    2.6130    3.3540 C.3    15  THR15       0.1794
     72  OG1        9.7920    1.3400    3.3000 O.3    15  THR15      -0.2208
     73  CG2        9.8260    3.2130    4.6350 C.3    15  THR15       0.0378
     74  N         10.0980    4.8590   -2.3560 N.3    18  GLN18      -0.1245
     75  CA        10.6990    6.2280   -2.3380 C.3    18  GLN18       0.1566
     76  C         12.2060    6.1680   -2.0170 C.2    18  GLN18       0.2260
     77  O         12.8790    7.1730   -2.1480 O.2    18  GLN18      -0.2867
     78  CB         9.9460    7.1070   -1.2990 C.3    18  GLN18       0.0367
     79  CG         9.6540    6.3500    0.0200 C.3    18  GLN18       0.0905
     80  CD         9.1600    7.2550    1.1550 C.2    18  GLN18       0.2608
     81  OE1        8.6610    6.8220    2.1710 O.2    18  GLN18      -0.2717
     82  NE2        9.2920    8.5310    1.0150 N.am   18  GLN18      -0.0878
     83  N         -6.4720    3.6170    0.4050 N.3    47  VAL47      -0.1245
     84  CA        -4.9810    3.6280    0.4220 C.3    47  VAL47       0.1561
     85  C         -4.5440    4.4280   -0.8050 C.2    47  VAL47       0.2260
     86  O         -3.7950    5.3580   -0.6410 O.2    47  VAL47      -0.2867
     87  CB        -4.4800    2.1630    0.3790 C.3    47  VAL47       0.0252
     88  CG1       -3.5410    1.8650   -0.7970 C.3    47  VAL47       0.0019
     89  CG2       -3.7310    1.8840    1.6410 C.3    47  VAL47       0.0019
     90  N         -4.3570    7.8450   -0.2370 N.3    50  CYS50      -0.1221
     91  CA        -3.2710    8.1880    0.7530 C.3    50  CYS50       0.1808
     92  C         -1.9270    8.2020   -0.0610 C.2    50  CYS50       0.2601
     93  O         -1.1270    9.1260   -0.0040 O.2    50  CYS50      -0.2717
     94  CB        -3.2350    7.0950    1.8910 C.3    50  CYS50       0.0970
     95  SG        -4.7420    6.2140    2.3900 S.3    50  CYS50      -0.0800
     96  N         -1.7240    7.1520   -0.8200 N.am   51  LEU51      -0.1979
     97  CA        -0.4920    7.0020   -1.6700 C.3    51  LEU51       0.1596
     98  C         -0.3880    8.2760   -2.4970 C.2    51  LEU51       0.2287
     99  O          0.5640    9.0120   -2.3800 O.2    51  LEU51      -0.2864
    100  CB        -0.6310    5.7570   -2.5970 C.3    51  LEU51       0.0297
    101  CG        -1.0220    4.4870   -1.8080 C.3    51  LEU51       0.0022
    102  CD1       -0.7050    3.2470   -2.6330 C.3    51  LEU51       0.0001
    103  CD2       -0.3370    4.4170   -0.4550 C.3    51  LEU51       0.0001
    104  N          0.7850   11.3390   -0.6540 N.3    54  ILE54      -0.1245
    105  CA         2.2360   11.5030   -0.3100 C.3    54  ILE54       0.1561
    106  C          3.0310   11.5930   -1.6240 C.2    54  ILE54       0.2260
    107  O          3.8400   12.4900   -1.8150 O.2    54  ILE54      -0.2867
    108  CB         2.6420   10.3010    0.5590 C.3    54  ILE54       0.0252
    109  CG1        3.9060   10.7500    1.3350 C.3    54  ILE54       0.0019
    110  CG2        2.9890    9.0220   -0.2420 C.3    54  ILE54       0.0019
    111  CD1        4.2490    9.7550    2.4350 C.3    54  ILE54       0.0001
@<TRIPOS>BOND
     1   102   101    1
     2   100   101    1
     3   100    97    1
     4    98    99    2
     5    98    97    1
     6    74    75    1
     7    75    76    1
     8    75    78    1
     9    77    76    2
    10   107   106    2
    11   101   103    1
    12    97    96    1
    13   106   105    1
    14    78    79    1
    15    65    64    1
    16    96    92   am
    17    85    86    2
    18    85    84    1
    19    88    87    1
    20   104   105    1
    21    62    61    2
    22   105   108    1
    23   110   108    1
    24    90    91    1
    25    92    93    2
    26    92    91    1
    27    79    80    1
    28    70    69    2
    29    49    48    1
    30    64    66    1
    31    64    63    1
    32    87    84    1
    33    87    89    1
    34    83    84    1
    35    60    61    1
    36    60    59    1
    37    60    63    1
    38   108   109    1
    39    61    67   am
    40    91    94    1
    41    69    68    1
    42    48    47    1
    43    82    80   am
    44    80    81    2
    45   109   111    1
    46    67    68    1
    47    94    95    1
    48    68    71    1
    49    95    22    1
    50    47    46    1
    51    46    43    1
    52    45    44    2
    53    72    71    1
    54    71    73    1
    55    22    21    1
    56    43    44    1
    57    43    42    1
    58    53    52    2
    59    44    50   am
    60    33    31    1
    61    16    14   am
    62    32    31    1
    63    30    29    2
    64    52    51    1
    65    31    28    1
    66    28    29    1
    67    28    27    1
    68    15    14    2
    69    50    51    1
    70    14    13    1
    71    29    34   am
    72    21    18    1
    73    51    54    1
    74    18    17    1
    75    18    19    1
    76    12    11    2
    77    34    35    1
    78    13    10    1
    79    11    17   am
    80    11    10    1
    81    35    38    1
    82    35    36    1
    83    54    55    1
    84    56    55    1
    85    56    57    1
    86    40    39   ar
    87    19    20    2
    88    19    23   am
    89    10     9    1
    90    37    36    2
    91    38    39    1
    92    57    58    1
    93    39    41   ar
    94    23    24    1
    95     9     3   am
    96    26    25    2
    97    25    24    1
    98     4     3    2
    99     3     2    1
   100     1     2    1
   101     2     5    1
   102     5     6    1
   103     8     6    1
   104     6     7    1
