@<TRIPOS>MOLECULE
tmp/1jtbA01.pdb
 155 142 0 0 0
SMALL
GASTEIGER

@<TRIPOS>ATOM
      1  N         -2.8600    1.6010    6.3930 N.3     6  VAL6       -0.1245
      2  CA        -2.0660    2.0650    5.2110 C.3     6  VAL6        0.1561
      3  C         -0.5900    1.7290    5.4070 C.2     6  VAL6        0.2260
      4  O          0.0860    0.9880    4.7150 O.2     6  VAL6       -0.2867
      5  CB        -2.3770    3.5930    5.1460 C.3     6  VAL6        0.0252
      6  CG1       -1.2670    4.3980    4.4940 C.3     6  VAL6        0.0019
      7  CG2       -3.6050    3.8320    4.2870 C.3     6  VAL6        0.0019
      8  N          2.0510   -1.2620    5.1200 N.3    10  MET10      -0.1245
      9  CA         2.9530   -1.0360    3.9620 C.3    10  MET10       0.1570
     10  C          4.1100   -0.0680    4.1440 C.2    10  MET10       0.2261
     11  O          4.7860    0.2440    3.1780 O.2    10  MET10      -0.2867
     12  CB         2.0330   -0.6090    2.8540 C.3    10  MET10       0.0387
     13  CG         1.0380   -1.7600    2.5940 C.3    10  MET10       0.0595
     14  SD         0.5870   -2.0540    0.8720 S.3    10  MET10      -0.1393
     15  CE         2.2790   -2.1910    0.2510 C.3    10  MET10       0.0692
     16  N          7.0390   -0.8620    2.3940 N.3    13  CYS13      -0.1221
     17  CA         6.9190   -0.9060    0.8990 C.3    13  CYS13       0.1808
     18  C          6.9500    0.5080    0.3640 C.2    13  CYS13       0.2601
     19  O          7.6030    0.7630   -0.6330 O.2    13  CYS13      -0.2717
     20  CB         5.6420   -1.6110    0.5460 C.3    13  CYS13       0.0970
     21  SG         5.5100   -3.2440    1.2940 S.3    13  CYS13      -0.0800
     22  N          6.2600    1.4230    1.0030 N.am   14  LEU14      -0.1979
     23  CA         6.3520    2.8000    0.4290 C.3    14  LEU14       0.1596
     24  C          7.8390    3.1560    0.6230 C.2    14  LEU14       0.2287
     25  O          8.4590    3.5760   -0.3310 O.2    14  LEU14      -0.2864
     26  CB         5.5280    3.8860    1.1690 C.3    14  LEU14       0.0297
     27  CG         5.7720    5.2170    0.3280 C.3    14  LEU14       0.0022
     28  CD1        5.0280    5.1680   -1.0250 C.3    14  LEU14       0.0001
     29  CD2        5.3100    6.4640    1.0460 C.3    14  LEU14       0.0001
     30  N          9.7780    1.9340   -2.2990 N.3    17  VAL17      -0.1245
     31  CA         9.6490    2.7590   -3.5610 C.3    17  VAL17       0.1561
     32  C         10.2190    4.1650   -3.4580 C.2    17  VAL17       0.2260
     33  O         10.7670    4.6040   -4.4460 O.2    17  VAL17      -0.2867
     34  CB         8.1560    2.8700   -4.0400 C.3    17  VAL17       0.0252
     35  CG1        7.4700    1.5360   -3.8810 C.3    17  VAL17       0.0019
     36  CG2        7.2930    3.9390   -3.4150 C.3    17  VAL17       0.0019
     37  N          2.4710   -6.5780    2.4940 N.3    31  VAL31      -0.1245
     38  CA         1.9490   -6.5470    1.0800 C.3    31  VAL31       0.1561
     39  C          0.9470   -7.6780    0.8060 C.2    31  VAL31       0.2260
     40  O         -0.1960   -7.4230    0.4880 O.2    31  VAL31      -0.2867
     41  CB         3.2170   -6.6500    0.1830 C.3    31  VAL31       0.0252
     42  CG1        2.9370   -7.1320   -1.2130 C.3    31  VAL31       0.0019
     43  CG2        3.8140   -5.2950    0.0280 C.3    31  VAL31       0.0019
     44  N         -1.8660   -6.8590    3.1270 N.3    34  LEU34      -0.1231
     45  CA        -2.6620   -5.7780    2.4890 C.3    34  LEU34       0.1693
     46  C         -3.4910   -6.2620    1.3140 C.2    34  LEU34       0.2592
     47  O         -4.6740   -6.0040    1.3150 O.2    34  LEU34      -0.2718
     48  CB        -1.6420   -4.6700    2.1120 C.3    34  LEU34       0.0284
     49  CG        -1.6580   -3.4190    3.0540 C.3    34  LEU34       0.0019
     50  CD1       -2.1850   -2.1550    2.3680 C.3    34  LEU34       0.0001
     51  CD2       -2.5620   -3.5250    4.2510 C.3    34  LEU34       0.0001
     52  N         -2.9020   -6.9270    0.3500 N.am   35  HIS35      -0.1976
     53  CA        -3.7190   -7.4180   -0.8180 C.3    35  HIS35       0.1656
     54  C         -4.9870   -8.1300   -0.3110 C.2    35  HIS35       0.2291
     55  O         -6.0950   -7.8290   -0.7240 O.2    35  HIS35      -0.2864
     56  CB        -2.7800   -8.3630   -1.6530 C.3    35  HIS35       0.0771
     57  CG        -3.4610   -9.4260   -2.5620 C.ar   35  HIS35       0.0820
     58  ND1       -2.8080  -10.1430   -3.4230 N.ar   35  HIS35      -0.2267
     59  CD2       -4.7680   -9.8900   -2.7030 C.ar   35  HIS35       0.1154
     60  CE1       -3.6050  -10.9650   -4.0330 C.ar   35  HIS35       0.1986
     61  NE2       -4.8330  -10.8400   -3.6140 N.ar   35  HIS35      -0.2212
     62  N         -7.6720   -0.7640    0.0230 N.3    44  ARG44      -0.1245
     63  CA        -6.6650   -0.3650   -1.0360 C.3    44  ARG44       0.1563
     64  C         -7.0820    0.8080   -1.9880 C.2    44  ARG44       0.2260
     65  O         -6.2560    1.4200   -2.6390 O.2    44  ARG44      -0.2867
     66  CB        -6.3110   -1.5630   -1.9280 C.3    44  ARG44       0.0307
     67  CG        -7.0140   -2.8620   -1.6490 C.3    44  ARG44       0.0489
     68  CD        -8.4680   -2.6930   -1.9970 C.3    44  ARG44       0.2205
     69  NE        -9.0910   -4.0140   -1.7190 N.pl3  44  ARG44      -0.0865
     70  CZ        -9.2460   -4.7640   -2.7240 C.cat  44  ARG44       0.5346
     71  NH1      -10.0870   -4.3500   -3.5700 N.pl3  44  ARG44       0.1354
     72  NH2       -8.5630   -5.8340   -2.8220 N.pl3  44  ARG44       0.1354
     73  N         -6.4720    3.6170    0.4050 N.3    47  VAL47      -0.1245
     74  CA        -4.9810    3.6280    0.4220 C.3    47  VAL47       0.1561
     75  C         -4.5440    4.4280   -0.8050 C.2    47  VAL47       0.2260
     76  O         -3.7950    5.3580   -0.6410 O.2    47  VAL47      -0.2867
     77  CB        -4.4800    2.1630    0.3790 C.3    47  VAL47       0.0252
     78  CG1       -3.5410    1.8650   -0.7970 C.3    47  VAL47       0.0019
     79  CG2       -3.7310    1.8840    1.6410 C.3    47  VAL47       0.0019
     80  N         -1.7240    7.1520   -0.8200 N.3    51  LEU51      -0.1245
     81  CA        -0.4920    7.0020   -1.6700 C.3    51  LEU51       0.1561
     82  C         -0.3880    8.2760   -2.4970 C.2    51  LEU51       0.2260
     83  O          0.5640    9.0120   -2.3800 O.2    51  LEU51      -0.2867
     84  CB        -0.6310    5.7570   -2.5970 C.3    51  LEU51       0.0270
     85  CG        -1.0220    4.4870   -1.8080 C.3    51  LEU51       0.0019
     86  CD1       -0.7050    3.2470   -2.6330 C.3    51  LEU51       0.0001
     87  CD2       -0.3370    4.4170   -0.4550 C.3    51  LEU51       0.0001
     88  N          8.7320   -0.4840   -7.1970 N.3    66  ALA66      -0.1245
     89  CA         7.2920   -0.5870   -6.7790 C.3    66  ALA66       0.1562
     90  C          6.5650   -1.6810   -7.5990 C.2    66  ALA66       0.2260
     91  O          5.9130   -2.5580   -7.0620 O.2    66  ALA66      -0.2867
     92  CB         6.6600    0.8060   -6.9870 C.3    66  ALA66       0.0290
     93  N          7.4780   -4.7820   -6.5670 N.3    69  ILE69      -0.1231
     94  CA         7.0790   -5.2440   -5.1840 C.3    69  ILE69       0.1678
     95  C          6.3340   -6.5830   -5.3870 C.2    69  ILE69       0.2434
     96  O          6.6660   -7.5470   -4.7350 O.2    69  ILE69      -0.2733
     97  CB         6.1020   -4.2250   -4.4360 C.3    69  ILE69       0.0265
     98  CG1        6.8140   -3.1190   -3.5850 C.3    69  ILE69       0.0019
     99  CG2        5.2530   -5.0320   -3.4030 C.3    69  ILE69       0.0020
    100  CD1        5.8260   -1.9620   -3.4340 C.3    69  ILE69       0.0001
    101  N          5.3580   -6.6640   -6.2700 N.am   70  PRO70      -0.2729
    102  CA         4.4480   -7.8430   -6.3170 C.3    70  PRO70       0.1401
    103  C          5.1800   -9.1330   -6.6500 C.2    70  PRO70       0.2269
    104  O          4.9870  -10.1480   -6.0060 O.2    70  PRO70      -0.2865
    105  CB         3.3790   -7.4860   -7.3740 C.3    70  PRO70       0.0296
    106  CG         3.5020   -5.9520   -7.5490 C.3    70  PRO70       0.0237
    107  CD         4.9890   -5.6620   -7.3160 C.3    70  PRO70       0.0939
    108  N          2.6150  -11.6740   -4.1440 N.3    75  VAL75      -0.1245
    109  CA         1.2490  -11.0810   -3.8060 C.3    75  VAL75       0.1561
    110  C          0.3710  -10.8660   -5.0630 C.2    75  VAL75       0.2260
    111  O         -0.6500  -10.2160   -4.9860 O.2    75  VAL75      -0.2867
    112  CB         1.5210   -9.7140   -3.0030 C.3    75  VAL75       0.0252
    113  CG1        2.5210   -8.9210   -3.8170 C.3    75  VAL75       0.0019
    114  CG2        0.3460   -8.7830   -2.7890 C.3    75  VAL75       0.0019
    115  N         -1.3030   -9.4210   -7.3350 N.3    77  VAL77      -0.1245
    116  CA        -2.5510   -8.6110   -7.4790 C.3    77  VAL77       0.1561
    117  C         -2.1900   -7.5290   -8.5280 C.2    77  VAL77       0.2260
    118  O         -1.1140   -6.9580   -8.4650 O.2    77  VAL77      -0.2867
    119  CB        -2.9190   -7.9920   -6.0890 C.3    77  VAL77       0.0252
    120  CG1       -1.7980   -7.1330   -5.5020 C.3    77  VAL77       0.0019
    121  CG2       -4.1680   -7.1080   -6.1930 C.3    77  VAL77       0.0019
    122  N         -3.0880   -4.6130   -8.9160 N.3    79  TYR79      -0.1241
    123  CA        -3.1020   -3.3030   -8.1640 C.3    79  TYR79       0.1605
    124  C         -2.7280   -1.9560   -8.8540 C.2    79  TYR79       0.2264
    125  O         -2.1420   -1.0850   -8.2380 O.2    79  TYR79      -0.2867
    126  CB        -2.1800   -3.5560   -6.9790 C.3    79  TYR79       0.0534
    127  CG        -2.3860   -2.5510   -5.9030 C.ar   79  TYR79      -0.0201
    128  CD1       -3.6190   -2.5410   -5.3650 C.ar   79  TYR79      -0.0009
    129  CD2       -1.4100   -1.6830   -5.4710 C.ar   79  TYR79      -0.0009
    130  CE1       -3.9120   -1.6730   -4.3880 C.ar   79  TYR79       0.0417
    131  CE2       -1.6940   -0.7860   -4.4700 C.ar   79  TYR79       0.0417
    132  CZ        -2.9660   -0.7840   -3.9220 C.ar   79  TYR79       0.1957
    133  OH        -3.3100    0.1120   -2.9450 O.3    79  TYR79      -0.2866
    134  N         -0.4770   -0.2260  -10.0180 N.3    81  ILE81      -0.1231
    135  CA         1.0250   -0.0700   -9.9810 C.3    81  ILE81       0.1692
    136  C          1.5900    1.2120  -10.6770 C.2    81  ILE81       0.2592
    137  O          2.3740    1.1760  -11.6080 O.2    81  ILE81      -0.2718
    138  CB         1.5470   -1.3890  -10.5900 C.3    81  ILE81       0.0266
    139  CG1        1.0110   -2.6410   -9.8360 C.3    81  ILE81       0.0019
    140  CG2        3.1040   -1.4470  -10.5520 C.3    81  ILE81       0.0020
    141  CD1        1.4500   -2.7170   -8.3560 C.3    81  ILE81       0.0001
    142  N          1.1650    2.3660  -10.2150 N.am   82  SER82      -0.1952
    143  CA         1.6630    3.6700  -10.8290 C.3    82  SER82       0.1924
    144  C          1.8150    4.9440   -9.9410 C.2    82  SER82       0.2314
    145  O          1.2470    5.0200   -8.8670 O.2    82  SER82      -0.2863
    146  CB         0.7400    3.9940  -12.0290 C.3    82  SER82       0.2116
    147  OG         1.3650    3.2660  -13.0800 O.3    82  SER82      -0.2180
    148  N         -1.0600    6.5290   -8.5500 N.3    85  ILE85      -0.1245
    149  CA        -2.0430    5.3910   -8.4790 C.3    85  ILE85       0.1561
    150  C         -3.5620    5.7350   -8.4060 C.2    85  ILE85       0.2260
    151  O         -4.0290    6.4630   -7.5510 O.2    85  ILE85      -0.2867
    152  CB        -1.5900    4.5200   -7.2630 C.3    85  ILE85       0.0252
    153  CG1       -2.5590    3.3260   -7.0050 C.3    85  ILE85       0.0019
    154  CG2       -1.5300    5.3880   -5.9830 C.3    85  ILE85       0.0019
    155  CD1       -1.7450    2.1890   -6.3390 C.3    85  ILE85       0.0001
@<TRIPOS>BOND
     1   147   146    1
     2   146   143    1
     3   137   136    2
     4   143   142    1
     5   143   144    1
     6   136   142   am
     7   136   135    1
     8   138   140    1
     9   138   135    1
    10   138   139    1
    11   134   135    1
    12   144   145    2
    13   139   141    1
    14   122   123    1
    15   124   125    2
    16   124   123    1
    17   148   149    1
    18   117   118    2
    19   117   116    1
    20   149   150    1
    21   149   152    1
    22   150   151    2
    23   123   126    1
    24    90    91    2
    25    90    89    1
    26   106   105    1
    27   106   107    1
    28   116   115    1
    29   116   119    1
    30   105   102    1
    31   107   101    1
    32   152   153    1
    33   152   154    1
    34    88    89    1
    35   153   155    1
    36    92    89    1
    37   126   127    1
    38   103   102    1
    39   103   104    2
    40    93    94    1
    41   102   101    1
    42   101    95   am
    43   121   119    1
    44   119   120    1
    45   127   129   ar
    46   127   128   ar
    47   129   131   ar
    48    95    94    1
    49    95    96    2
    50   128   130   ar
    51    94    97    1
    52   110   111    2
    53   110   109    1
    54   131   132   ar
    55    33    32    2
    56    97    98    1
    57    97    99    1
    58   130   132   ar
    59   108   109    1
    60    34    35    1
    61    34    31    1
    62    34    36    1
    63    60    61   ar
    64    60    58   ar
    65   132   133    1
    66   113   112    1
    67   109   112    1
    68    61    59   ar
    69    98   100    1
    70    71    70    1
    71    31    32    1
    72    31    30    1
    73    58    57   ar
    74   112   114    1
    75    72    70    1
    76    70    69    2
    77    59    57   ar
    78    65    64    2
    79    86    85    1
    80    84    85    1
    81    84    81    1
    82    57    56    1
    83    82    83    2
    84    82    81    1
    85    68    69    1
    86    68    67    1
    87    64    63    1
    88    66    67    1
    89    66    63    1
    90    85    87    1
    91    81    80    1
    92    56    53    1
    93    42    41    1
    94    63    62    1
    95    28    27    1
    96    53    54    1
    97    53    52    1
    98    75    76    2
    99    75    74    1
   100    78    77    1
   101    55    54    2
   102    19    18    2
   103    25    24    2
   104    43    41    1
   105    41    38    1
   106    15    14    1
   107    27    29    1
   108    27    26    1
   109    52    46   am
   110    18    17    1
   111    18    22   am
   112    77    74    1
   113    77    79    1
   114    73    74    1
   115    23    24    1
   116    23    22    1
   117    23    26    1
   118    40    39    2
   119    20    17    1
   120    20    21    1
   121    39    38    1
   122    14    13    1
   123    17    16    1
   124    38    37    1
   125    46    47    2
   126    46    45    1
   127    48    45    1
   128    48    49    1
   129    50    49    1
   130    45    44    1
   131    13    12    1
   132    12     9    1
   133    49    51    1
   134    11    10    2
   135     9    10    1
   136     9     8    1
   137     7     5    1
   138     6     5    1
   139     4     3    2
   140     5     2    1
   141     2     3    1
   142     2     1    1
