@<TRIPOS>MOLECULE
tmp/1jtqA01.pdb
 214 206 0 0 0
SMALL
GASTEIGER

@<TRIPOS>ATOM
      1  N          9.7420   27.6570   26.0560 N.3    20  ARG20      -0.1231
      2  CA         9.4380   26.6890   25.0060 C.3    20  ARG20       0.1694
      3  C          8.3000   25.7300   25.3650 C.2    20  ARG20       0.2592
      4  O          7.3950   25.4980   24.5540 O.2    20  ARG20      -0.2718
      5  CB        10.7060   25.8790   24.6800 C.3    20  ARG20       0.0321
      6  CG        10.4900   24.6740   23.7690 C.3    20  ARG20       0.0489
      7  CD        11.7560   23.8320   23.6050 C.3    20  ARG20       0.2205
      8  NE        12.2050   23.2340   24.8640 N.pl3  20  ARG20      -0.0865
      9  CZ        11.8020   22.0520   25.3340 C.cat  20  ARG20       0.5346
     10  NH1       12.2660   21.6020   26.4960 N.pl3  20  ARG20       0.1354
     11  NH2       10.9480   21.3110   24.6450 N.pl3  20  ARG20       0.1354
     12  N          8.3400   25.1870   26.5820 N.am   21  THR21      -0.1953
     13  CA         7.3260   24.2370   27.0360 C.3    21  THR21       0.1897
     14  C          5.9800   24.8500   27.4250 C.2    21  THR21       0.2313
     15  O          5.0360   24.1280   27.7230 O.2    21  THR21      -0.2863
     16  CB         7.8310   23.3880   28.2230 C.3    21  THR21       0.1794
     17  OG1        7.8160   24.1740   29.4200 O.3    21  THR21      -0.2208
     18  CG2        9.2510   22.9140   27.9650 C.3    21  THR21       0.0378
     19  N         16.5620   15.9630   49.6060 N.3    47  LYS47      -0.1245
     20  CA        15.5070   15.2150   48.9180 C.3    47  LYS47       0.1561
     21  C         16.1540   13.9400   48.3860 C.2    47  LYS47       0.2260
     22  O         17.3070   13.9730   47.9500 O.2    47  LYS47      -0.2867
     23  CB        14.8840   16.0250   47.7720 C.3    47  LYS47       0.0271
     24  CG        15.6120   15.9600   46.4370 C.3    47  LYS47       0.0035
     25  CD        14.7490   16.5090   45.3080 C.3    47  LYS47       0.0206
     26  CE        15.3820   16.3270   43.9470 C.3    47  LYS47       0.1093
     27  NZ        14.5110   16.9700   42.9380 N.3    47  LYS47      -0.1314
     28  N         17.6470    9.2740   43.1240 N.3    50  HIS50      -0.1241
     29  CA        17.7040    7.9390   42.5670 C.3    50  HIS50       0.1621
     30  C         19.0170    7.7450   41.7900 C.2    50  HIS50       0.2264
     31  O         19.0530    7.8580   40.5690 O.2    50  HIS50      -0.2867
     32  CB        16.4730    7.7950   41.6780 C.3    50  HIS50       0.0745
     33  CG        16.3010    6.4500   41.0640 C.ar   50  HIS50       0.0817
     34  ND1       15.6620    5.4060   41.6950 N.ar   50  HIS50      -0.2268
     35  CD2       16.6190    5.9970   39.8150 C.ar   50  HIS50       0.1154
     36  CE1       15.5880    4.3750   40.8650 C.ar   50  HIS50       0.1986
     37  NE2       16.1480    4.6980   39.7430 N.ar   50  HIS50      -0.2212
     38  N         20.7040    5.2410   40.8510 N.3    52  ARG52      -0.1231
     39  CA        20.6570    4.2110   39.8220 C.3    52  ARG52       0.1694
     40  C         20.4850    4.7810   38.4070 C.2    52  ARG52       0.2592
     41  O         21.0690    4.2680   37.4460 O.2    52  ARG52      -0.2718
     42  CB        19.5100    3.2640   40.1430 C.3    52  ARG52       0.0321
     43  CG        19.5870    1.9460   39.4160 C.3    52  ARG52       0.0489
     44  CD        18.2640    1.2190   39.4810 C.3    52  ARG52       0.2205
     45  NE        17.5870    1.2990   38.1930 N.pl3  52  ARG52      -0.0865
     46  CZ        16.3620    1.7860   38.0000 C.cat  52  ARG52       0.5346
     47  NH1       15.8630    1.8130   36.7810 N.pl3  52  ARG52       0.1354
     48  NH2       15.6230    2.2170   39.0120 N.pl3  52  ARG52       0.1354
     49  N         19.6500    5.8040   38.2800 N.am   53  SER53      -0.1952
     50  CA        19.4050    6.4430   36.9900 C.3    53  SER53       0.1924
     51  C         20.5990    7.2760   36.5550 C.2    53  SER53       0.2314
     52  O         20.9780    7.2810   35.3800 O.2    53  SER53      -0.2863
     53  CB        18.1670    7.3410   37.0610 C.3    53  SER53       0.2116
     54  OG        16.9890    6.5630   37.1100 O.3    53  SER53      -0.2180
     55  N         22.8270    6.4520   33.0900 N.3    57  GLU57      -0.1245
     56  CA        22.8030    7.4530   32.0340 C.3    57  GLU57       0.1567
     57  C         24.2360    7.7300   31.5800 C.2    57  GLU57       0.2260
     58  O         24.5230    7.7750   30.3850 O.2    57  GLU57      -0.2867
     59  CB        22.1660    8.7530   32.5320 C.3    57  GLU57       0.0388
     60  CG        22.0300    9.8110   31.4420 C.3    57  GLU57       0.1160
     61  CD        21.6880   11.1930   31.9870 C.2    57  GLU57       0.3649
     62  OE1       20.9690   11.9360   31.2850 O.co2  57  GLU57      -0.2457
     63  OE2       22.1560   11.5360   33.1030 O.co2  57  GLU57      -0.2457
     64  N         13.8750    5.3050   32.9720 N.3    77  THR77      -0.1203
     65  CA        12.8900    5.9020   32.0700 C.3    77  THR77       0.1994
     66  C         12.9770    7.4250   31.9160 C.2    77  THR77       0.2618
     67  O         12.0660    8.0370   31.3540 O.2    77  THR77      -0.2717
     68  CB        11.4660    5.5960   32.5850 C.3    77  THR77       0.1784
     69  OG1       11.3810    5.9910   33.9670 O.3    77  THR77      -0.2211
     70  CG2       11.1820    4.1250   32.4710 C.3    77  THR77       0.0376
     71  N         14.0720    8.0360   32.3620 N.am   78  ILE78      -0.1965
     72  CA        14.2280    9.4970   32.2920 C.3    78  ILE78       0.1727
     73  C         14.2060   10.1730   30.9170 C.2    78  ILE78       0.2616
     74  O         13.9790   11.3820   30.8330 O.2    78  ILE78      -0.2715
     75  CB        15.4950    9.9780   33.0340 C.3    78  ILE78       0.0290
     76  CG1       16.7490    9.3480   32.4240 C.3    78  ILE78       0.0022
     77  CG2       15.4040    9.6430   34.5120 C.3    78  ILE78       0.0023
     78  CD1       18.0500    9.8370   33.0400 C.3    78  ILE78       0.0001
     79  N         14.3980    9.4090   29.8470 N.am   79  TRP79      -0.1974
     80  CA        14.4290    9.9920   28.5080 C.3    79  TRP79       0.1640
     81  C         13.2580    9.6480   27.5920 C.2    79  TRP79       0.2290
     82  O         13.1960   10.1310   26.4560 O.2    79  TRP79      -0.2864
     83  CB        15.7490    9.6280   27.8220 C.3    79  TRP79       0.0576
     84  CG        16.8960   10.4800   28.2590 C.ar   79  TRP79       0.0006
     85  CD1       17.8920   10.1490   29.1360 C.ar   79  TRP79       0.0946
     86  CD2       17.1460   11.8260   27.8550 C.ar   79  TRP79       0.0152
     87  NE1       18.7480   11.2110   29.3050 N.ar   79  TRP79      -0.2442
     88  CE2       18.3100   12.2520   28.5310 C.ar   79  TRP79       0.0810
     89  CE3       16.5020   12.7100   26.9880 C.ar   79  TRP79       0.0012
     90  CZ2       18.8410   13.5300   28.3660 C.ar   79  TRP79       0.0191
     91  CZ3       17.0230   13.9770   26.8190 C.ar   79  TRP79       0.0001
     92  CH2       18.1810   14.3780   27.5100 C.ar   79  TRP79       0.0015
     93  N         10.1170   10.6060   27.2730 N.3    81  GLU81      -0.1231
     94  CA         9.2940   11.6570   26.6940 C.3    81  GLU81       0.1699
     95  C          9.8460   12.3520   25.4540 C.2    81  GLU81       0.2592
     96  O          9.1290   13.1380   24.8230 O.2    81  GLU81      -0.2718
     97  CB         8.9490   12.7110   27.7490 C.3    81  GLU81       0.0402
     98  CG         7.9940   12.2400   28.8360 C.3    81  GLU81       0.1161
     99  CD         8.6360   11.2880   29.8370 C.2    81  GLU81       0.3649
    100  OE1        7.8770   10.5260   30.4730 O.co2  81  GLU81      -0.2457
    101  OE2        9.8820   11.3060   30.0000 O.co2  81  GLU81      -0.2457
    102  N         11.1000   12.0690   25.0970 N.am   82  TRP82      -0.1976
    103  CA        11.7170   12.7160   23.9370 C.3    82  TRP82       0.1640
    104  C         12.1600   11.7500   22.8330 C.2    82  TRP82       0.2290
    105  O         12.5350   12.1840   21.7290 O.2    82  TRP82      -0.2864
    106  CB        12.8970   13.6030   24.3910 C.3    82  TRP82       0.0576
    107  CG        12.4790   14.6480   25.4040 C.ar   82  TRP82       0.0006
    108  CD1       11.9210   15.8800   25.1540 C.ar   82  TRP82       0.0946
    109  CD2       12.4800   14.4960   26.8310 C.ar   82  TRP82       0.0152
    110  NE1       11.5470   16.4840   26.3370 N.ar   82  TRP82      -0.2442
    111  CE2       11.8720   15.6520   27.3790 C.ar   82  TRP82       0.0810
    112  CE3       12.9100   13.4830   27.6990 C.ar   82  TRP82       0.0012
    113  CZ2       11.6970   15.8240   28.7590 C.ar   82  TRP82       0.0191
    114  CZ3       12.7340   13.6530   29.0650 C.ar   82  TRP82       0.0001
    115  CH2       12.1310   14.8100   29.5780 C.ar   82  TRP82       0.0015
    116  N         16.4240   16.9980   21.6660 N.3   142  LEU142     -0.1245
    117  CA        16.4890   18.1270   22.5830 C.3   142  LEU142      0.1561
    118  C         17.9300   18.6290   22.5180 C.2   142  LEU142      0.2260
    119  O         18.8580   17.8200   22.4880 O.2   142  LEU142     -0.2867
    120  CB        16.1850   17.6480   24.0170 C.3   142  LEU142      0.0270
    121  CG        15.7330   18.6550   25.0850 C.3   142  LEU142      0.0019
    122  CD1       14.4010   19.2690   24.6910 C.3   142  LEU142      0.0001
    123  CD2       15.6010   17.9740   26.4480 C.3   142  LEU142      0.0001
    124  N         21.8890   20.4120   27.2220 N.3   145  CYS145     -0.1235
    125  CA        21.7780   21.3650   28.3350 C.3   145  CYS145      0.1677
    126  C         23.1710   21.5170   28.9130 C.2   145  CYS145      0.2270
    127  O         23.6690   22.6360   29.0780 O.2   145  CYS145     -0.2867
    128  CB        20.7860   20.8630   29.3630 C.3   145  CYS145      0.0956
    129  SG        19.1050   20.7620   28.6680 S.3   145  CYS145     -0.0801
    130  N         17.3220   23.2830   34.7350 N.3   168  ASP168     -0.1239
    131  CA        16.0690   23.0550   35.4490 C.3   168  ASP168      0.1674
    132  C         16.5620   22.8000   36.8680 C.2   168  ASP168      0.2266
    133  O         16.9040   21.6750   37.2360 O.2   168  ASP168     -0.2867
    134  CB        15.3520   21.8080   34.8940 C.3   168  ASP168      0.1410
    135  CG        14.0290   21.5170   35.5960 C.2   168  ASP168      0.3668
    136  OD1       13.8380   21.9530   36.7530 O.co2 168  ASP168     -0.2456
    137  OD2       13.1740   20.8330   34.9880 O.co2 168  ASP168     -0.2456
    138  N         14.5050   19.7020   39.0160 N.3   171  LEU171     -0.1231
    139  CA        14.6820   18.3490   38.4810 C.3   171  LEU171      0.1693
    140  C         16.0440   18.0200   37.8770 C.2   171  LEU171      0.2592
    141  O         16.6970   17.0580   38.2990 O.2   171  LEU171     -0.2718
    142  CB        13.6120   18.0240   37.4380 C.3   171  LEU171      0.0284
    143  CG        12.2020   17.6150   37.8630 C.3   171  LEU171      0.0019
    144  CD1       11.5010   17.0030   36.6690 C.3   171  LEU171      0.0001
    145  CD2       12.2720   16.6010   38.9980 C.3   171  LEU171      0.0001
    146  N         16.4710   18.7810   36.8770 N.am  172  GLY172     -0.1957
    147  CA        17.7300   18.4430   36.2490 C.3   172  GLY172      0.1869
    148  C         19.0280   18.6120   37.0150 C.2   172  GLY172      0.2309
    149  O         19.8940   17.7270   36.9830 O.2   172  GLY172     -0.2863
    150  N         20.7540   15.9020   39.3110 N.3   175  PHE175     -0.1227
    151  CA        21.2190   14.7990   38.4880 C.3   175  PHE175      0.1736
    152  C         22.5240   15.1700   37.7940 C.2   175  PHE175      0.2595
    153  O         23.4920   14.3960   37.7880 O.2   175  PHE175     -0.2718
    154  CB        20.1930   14.5360   37.3980 C.3   175  PHE175      0.0547
    155  CG        19.3570   13.3290   37.6170 C.ar  175  PHE175     -0.0202
    156  CD1       19.3720   12.3010   36.6860 C.ar  175  PHE175     -0.0042
    157  CD2       18.5100   13.2330   38.7170 C.ar  175  PHE175     -0.0042
    158  CE1       18.5520   11.2010   36.8410 C.ar  175  PHE175     -0.0003
    159  CE2       17.6840   12.1250   38.8750 C.ar  175  PHE175     -0.0003
    160  CZ        17.7070   11.1140   37.9340 C.ar  175  PHE175     -0.0000
    161  N         22.5240   16.3500   37.1760 N.am  176  ASN176     -0.1974
    162  CA        23.6860   16.8450   36.4430 C.3   176  ASN176      0.1688
    163  C         24.9160   17.0200   37.2940 C.2   176  ASN176      0.2292
    164  O         26.0270   16.7660   36.8350 O.2   176  ASN176     -0.2864
    165  CB        23.3520   18.1550   35.7420 C.3   176  ASN176      0.1181
    166  CG        22.2940   17.9860   34.6920 C.2   176  ASN176      0.2629
    167  OD1       21.3710   18.7910   34.5920 O.2   176  ASN176     -0.2716
    168  ND2       22.4030   16.9200   33.9070 N.am  176  ASN176     -0.0877
    169  N         10.8350   26.0920   37.3370 N.3   208  TYR208     -0.1241
    170  CA         9.5430   26.1300   36.6600 C.3   208  TYR208      0.1605
    171  C          8.4660   26.5820   37.6390 C.2   208  TYR208      0.2264
    172  O          8.5910   26.3720   38.8540 O.2   208  TYR208     -0.2867
    173  CB         9.2000   24.7730   36.0540 C.3   208  TYR208      0.0534
    174  CG         9.9070   24.5240   34.7410 C.ar  208  TYR208     -0.0201
    175  CD1       11.1050   23.8050   34.6890 C.ar  208  TYR208     -0.0009
    176  CD2        9.3970   25.0410   33.5480 C.ar  208  TYR208     -0.0009
    177  CE1       11.7820   23.6160   33.4740 C.ar  208  TYR208      0.0417
    178  CE2       10.0620   24.8600   32.3340 C.ar  208  TYR208      0.0417
    179  CZ        11.2530   24.1470   32.3030 C.ar  208  TYR208      0.1957
    180  OH        11.9200   23.9900   31.1050 O.3   208  TYR208     -0.2866
    181  N         10.5450   14.3310   46.9710 N.3   257  ILE257     -0.1231
    182  CA         9.5530   15.3380   46.6050 C.3   257  ILE257      0.1692
    183  C          9.2420   15.1540   45.1130 C.2   257  ILE257      0.2592
    184  O         10.1380   15.2100   44.2750 O.2   257  ILE257     -0.2718
    185  CB        10.1020   16.7800   46.8250 C.3   257  ILE257      0.0266
    186  CG1       10.6940   16.9210   48.2360 C.3   257  ILE257      0.0019
    187  CG2        9.0060   17.8130   46.6170 C.3   257  ILE257      0.0020
    188  CD1       11.0430   18.3520   48.6390 C.3   257  ILE257      0.0001
    189  N          7.9810   14.8960   44.7870 N.am  258  LYS258     -0.1966
    190  CA         7.5830   14.7000   43.3890 C.3   258  LYS258      0.1728
    191  C          7.2300   15.9910   42.6710 C.2   258  LYS258      0.2616
    192  O          6.6420   16.9070   43.2540 O.2   258  LYS258     -0.2715
    193  CB         6.4220   13.7030   43.2700 C.3   258  LYS258      0.0311
    194  CG         6.7860   12.2570   43.6050 C.3   258  LYS258      0.0038
    195  CD         8.0360   11.7800   42.8520 C.3   258  LYS258      0.0206
    196  CE         9.2590   11.6830   43.7880 C.3   258  LYS258      0.1093
    197  NZ        10.5270   11.3190   43.0780 N.3   258  LYS258     -0.1314
    198  N          7.5930   16.0570   41.3910 N.am  259  ALA259     -0.1977
    199  CA         7.3320   17.2380   40.5710 C.3   259  ALA259      0.1597
    200  C          7.2640   16.8380   39.1050 C.2   259  ALA259      0.2287
    201  O          7.9870   15.9420   38.6610 O.2   259  ALA259     -0.2864
    202  CB         8.4250   18.2930   40.7820 C.3   259  ALA259      0.0319
    203  N          7.6950   16.9830   35.0080 N.3   261  VAL261     -0.1231
    204  CA         8.7400   17.3800   34.0830 C.3   261  VAL261      0.1692
    205  C          8.1170   18.1250   32.9100 C.2   261  VAL261      0.2591
    206  O          7.0630   17.7280   32.4080 O.2   261  VAL261     -0.2718
    207  CB         9.5250   16.1400   33.5630 C.3   261  VAL261      0.0266
    208  CG1        8.6100   15.2070   32.7990 C.3   261  VAL261      0.0020
    209  CG2       10.7000   16.5740   32.6940 C.3   261  VAL261      0.0020
    210  N          8.7400   19.2310   32.5140 N.am  262  ALA262     -0.1980
    211  CA         8.2660   20.0230   31.3780 C.3   262  ALA262      0.1597
    212  C          8.8530   19.4120   30.1000 C.2   262  ALA262      0.2287
    213  O         10.0700   19.3540   29.9360 O.2   262  ALA262     -0.2864
    214  CB         8.7000   21.4640   31.5240 C.3   262  ALA262      0.0319
@<TRIPOS>BOND
     1   116   117    1
     2   105   104    2
     3   119   118    2
     4   118   117    1
     5   117   120    1
     6   104   103    1
     7     7     6    1
     8     7     8    1
     9     6     5    1
    10   103   106    1
    11   103   102    1
    12   120   121    1
    13   106   107    1
    14     4     3    2
    15    11     9    1
    16     5     2    1
    17   122   121    1
    18    96    95    2
    19     8     9    2
    20     2     3    1
    21     2     1    1
    22   121   123    1
    23   102    95   am
    24   108   107   ar
    25   108   110   ar
    26     9    10    1
    27     3    12   am
    28   107   109   ar
    29    95    94    1
    30   110   111   ar
    31    82    81    2
    32    12    13    1
    33    94    93    1
    34    94    97    1
    35    91    89   ar
    36    91    92   ar
    37   109   111   ar
    38   109   112   ar
    39    89    86   ar
    40    13    14    1
    41    13    16    1
    42   124   125    1
    43   111   113   ar
    44    14    15    2
    45    92    90   ar
    46    81    80    1
    47   112   114   ar
    48    97    98    1
    49    83    84    1
    50    83    80    1
    51    86    84   ar
    52    86    88   ar
    53    18    16    1
    54    16    17    1
    55    84    85   ar
    56   125   126    1
    57   125   128    1
    58    90    88   ar
    59    80    79    1
    60    88    87   ar
    61   129   128    1
    62   113   115   ar
    63    98    99    1
    64   126   127    2
    65   114   115   ar
    66    85    87   ar
    67    99   101   ar
    68    99   100   ar
    69    79    73   am
    70   213   212    2
    71   212   211    1
    72    58    57    2
    73    74    73    2
    74    73    72    1
    75   180   179    1
    76    62    61   ar
    77    67    66    2
    78   211   214    1
    79   211   210    1
    80    60    61    1
    81    60    59    1
    82    57    56    1
    83    66    65    1
    84    66    71   am
    85    61    63   ar
    86    56    59    1
    87    56    55    1
    88    65    68    1
    89    65    64    1
    90    72    71    1
    91    72    75    1
    92   179   178   ar
    93   179   177   ar
    94   178   176   ar
    95   206   205    2
    96    76    75    1
    97    76    78    1
    98    70    68    1
    99   210   205   am
   100    68    69    1
   101   209   207    1
   102   208   207    1
   103   205   204    1
   104    75    77    1
   105   177   175   ar
   106   176   174   ar
   107   207   204    1
   108   168   166   am
   109   204   203    1
   110   167   166    2
   111   175   174   ar
   112   166   165    1
   113   130   131    1
   114   174   173    1
   115   134   131    1
   116   134   135    1
   117   137   135   ar
   118    52    51    2
   119   131   132    1
   120   135   136   ar
   121   165   162    1
   122   173   170    1
   123   147   146    1
   124   147   148    1
   125   162   161    1
   126   162   163    1
   127    51    50    1
   128   170   169    1
   129   170   171    1
   130   144   143    1
   131   156   158   ar
   132   156   155   ar
   133    47    46    1
   134   164   163    2
   135   158   160   ar
   136   132   133    2
   137   146   140   am
   138   149   148    2
   139    50    53    1
   140    50    49    1
   141    53    54    1
   142   161   152   am
   143   154   155    1
   144   154   151    1
   145   142   143    1
   146   142   139    1
   147    41    40    2
   148   155   157   ar
   149   171   172    2
   150   153   152    2
   151   152   151    1
   152   143   145    1
   153   140   141    2
   154   140   139    1
   155   160   159   ar
   156    46    45    2
   157    46    48    1
   158    45    44    1
   159    49    40   am
   160    40    39    1
   161   139   138    1
   162   151   150    1
   163   201   200    2
   164   157   159   ar
   165   200   199    1
   166    43    44    1
   167    43    42    1
   168    37    35   ar
   169    37    36   ar
   170    35    33   ar
   171    39    42    1
   172    39    38    1
   173    31    30    2
   174   199   202    1
   175   199   198    1
   176    36    34   ar
   177    33    32    1
   178    33    34   ar
   179   198   191   am
   180    32    29    1
   181    30    29    1
   182    29    28    1
   183   191   192    2
   184   191   190    1
   185   195   194    1
   186   195   196    1
   187    27    26    1
   188   197   196    1
   189   193   190    1
   190   193   194    1
   191   190   189    1
   192    26    25    1
   193   184   183    2
   194   189   183   am
   195   183   182    1
   196    25    24    1
   197    24    23    1
   198   182   185    1
   199   182   181    1
   200   187   185    1
   201   185   186    1
   202    23    20    1
   203    22    21    2
   204   186   188    1
   205    21    20    1
   206    20    19    1
