@<TRIPOS>MOLECULE
tmp/1jtuA01.pdb
 233 226 0 0 0
SMALL
GASTEIGER

@<TRIPOS>ATOM
      1  N          9.8480   27.5590   25.9520 N.3    20  ARG20      -0.1245
      2  CA         9.5240   26.5650   24.9320 C.3    20  ARG20       0.1563
      3  C          8.3650   25.6310   25.3080 C.2    20  ARG20       0.2260
      4  O          7.5070   25.3390   24.4740 O.2    20  ARG20      -0.2867
      5  CB        10.7810   25.7300   24.6300 C.3    20  ARG20       0.0307
      6  CG        10.5660   24.5140   23.7460 C.3    20  ARG20       0.0489
      7  CD        11.8850   23.8130   23.4650 C.3    20  ARG20       0.2205
      8  NE        12.4710   23.2000   24.6580 N.pl3  20  ARG20      -0.0865
      9  CZ        11.9950   22.1120   25.2580 C.cat  20  ARG20       0.5346
     10  NH1       10.9200   21.4990   24.7860 N.pl3  20  ARG20       0.1354
     11  NH2       12.5980   21.6290   26.3320 N.pl3  20  ARG20       0.1354
     12  N         16.5130   16.0160   49.6850 N.3    47  LYS47      -0.1231
     13  CA        15.4600   15.2450   49.0100 C.3    47  LYS47       0.1693
     14  C         16.1440   14.0320   48.3970 C.2    47  LYS47       0.2592
     15  O         17.2430   14.1590   47.8730 O.2    47  LYS47      -0.2718
     16  CB        14.7850   16.0620   47.8990 C.3    47  LYS47       0.0285
     17  CG        15.3860   15.8680   46.5120 C.3    47  LYS47       0.0035
     18  CD        14.6070   16.6190   45.4370 C.3    47  LYS47       0.0206
     19  CE        15.1890   16.3500   44.0450 C.3    47  LYS47       0.1093
     20  NZ        14.5880   17.2240   42.9990 N.3    47  LYS47      -0.1314
     21  N         15.5100   12.8650   48.4460 N.am   48  ARG48      -0.1966
     22  CA        16.1290   11.6620   47.8920 C.3    48  ARG48       0.1729
     23  C         16.3260   11.7000   46.3780 C.2    48  ARG48       0.2616
     24  O         15.4640   12.1750   45.6430 O.2    48  ARG48      -0.2715
     25  CB        15.3140   10.4170   48.2600 C.3    48  ARG48       0.0348
     26  CG        15.8280    9.1480   47.5860 C.3    48  ARG48       0.0492
     27  CD        15.0220    7.9000   47.9350 C.3    48  ARG48       0.2205
     28  NE        15.5290    7.2130   49.1240 N.pl3  48  ARG48      -0.0865
     29  CZ        15.2140    7.5340   50.3760 C.cat  48  ARG48       0.5346
     30  NH1       14.3800    8.5380   50.6170 N.pl3  48  ARG48       0.1354
     31  NH2       15.7370    6.8540   51.3910 N.pl3  48  ARG48       0.1354
     32  N         17.4730   11.1990   45.9210 N.am   49  CYS49      -0.1954
     33  CA        17.7850   11.1420   44.4930 C.3    49  CYS49       0.1843
     34  C         17.9240    9.6960   44.0560 C.2    49  CYS49       0.2625
     35  O         18.3490    8.8460   44.8320 O.2    49  CYS49      -0.2714
     36  CB        19.0800   11.8860   44.1790 C.3    49  CYS49       0.0997
     37  SG        18.9480   13.6610   44.3630 S.3    49  CYS49      -0.0797
     38  N         17.5680    9.4190   42.8090 N.am   50  HIS50      -0.1973
     39  CA        17.6400    8.0640   42.2900 C.3    50  HIS50       0.1656
     40  C         18.9940    7.7980   41.6250 C.2    50  HIS50       0.2291
     41  O         19.1960    8.1380   40.4580 O.2    50  HIS50      -0.2864
     42  CB        16.4950    7.8450   41.2960 C.3    50  HIS50       0.0771
     43  CG        16.2610    6.4090   40.9430 C.ar   50  HIS50       0.0820
     44  ND1       16.4130    5.9220   39.6620 N.ar   50  HIS50      -0.2267
     45  CD2       15.8820    5.3550   41.7040 C.ar   50  HIS50       0.1154
     46  CE1       16.1390    4.6290   39.6500 C.ar   50  HIS50       0.1986
     47  NE2       15.8150    4.2600   40.8760 N.ar   50  HIS50      -0.2212
     48  N         20.4780    4.9700   40.6250 N.3    52  ARG52      -0.1231
     49  CA        20.3580    4.0630   39.4910 C.3    52  ARG52       0.1694
     50  C         20.2570    4.8100   38.1580 C.2    52  ARG52       0.2592
     51  O         20.9410    4.4750   37.1850 O.2    52  ARG52      -0.2718
     52  CB        19.1280    3.1730   39.6900 C.3    52  ARG52       0.0321
     53  CG        19.0720    1.9400   38.8120 C.3    52  ARG52       0.0489
     54  CD        17.8520    1.1040   39.1680 C.3    52  ARG52       0.2205
     55  NE        17.7140    0.9460   40.6160 N.pl3  52  ARG52      -0.0865
     56  CZ        18.5920    0.3190   41.3980 C.cat  52  ARG52       0.5346
     57  NH1       19.6890   -0.2250   40.8780 N.pl3  52  ARG52       0.1354
     58  NH2       18.3780    0.2420   42.7050 N.pl3  52  ARG52       0.1354
     59  N         19.4030    5.8260   38.1180 N.am   53  SER53      -0.1952
     60  CA        19.2200    6.5960   36.9020 C.3    53  SER53       0.1924
     61  C         20.4830    7.3610   36.5450 C.2    53  SER53       0.2314
     62  O         20.9840    7.2700   35.4200 O.2    53  SER53      -0.2863
     63  CB        18.0520    7.5750   37.0670 C.3    53  SER53       0.2116
     64  OG        16.8310    6.8700   37.2040 O.3    53  SER53      -0.2180
     65  N         22.7970    6.5330   33.1220 N.3    57  GLU57      -0.1245
     66  CA        22.7940    7.5360   32.0710 C.3    57  GLU57       0.1567
     67  C         24.2360    7.8370   31.6550 C.2    57  GLU57       0.2260
     68  O         24.5320    7.9360   30.4590 O.2    57  GLU57      -0.2867
     69  CB        22.0980    8.8260   32.5380 C.3    57  GLU57       0.0388
     70  CG        22.1030    9.9270   31.4720 C.3    57  GLU57       0.1160
     71  CD        21.5780   11.2620   31.9660 C.2    57  GLU57       0.3649
     72  OE1       21.9960   11.7070   33.0580 O.co2  57  GLU57      -0.2457
     73  OE2       20.7560   11.8760   31.2500 O.co2  57  GLU57      -0.2457
     74  N         15.8780   -0.3450   33.7050 N.3    75  ASN75      -0.1240
     75  CA        14.8080    0.3890   34.3750 C.3    75  ASN75       0.1653
     76  C         14.9880    1.8840   34.5810 C.2    75  ASN75       0.2266
     77  O         14.6250    2.4170   35.6310 O.2    75  ASN75      -0.2867
     78  CB        14.5150   -0.2630   35.7260 C.3    75  ASN75       0.1155
     79  CG        14.0740   -1.7020   35.5860 C.2    75  ASN75       0.2627
     80  OD1       13.0780   -1.9950   34.9150 O.2    75  ASN75      -0.2716
     81  ND2       14.8160   -2.6150   36.2120 N.am   75  ASN75      -0.0877
     82  N         13.9230    5.4980   33.0520 N.3    77  THR77      -0.1203
     83  CA        12.9610    6.1010   32.1390 C.3    77  THR77       0.1994
     84  C         13.0850    7.6080   31.9850 C.2    77  THR77       0.2618
     85  O         12.2150    8.2370   31.3920 O.2    77  THR77      -0.2717
     86  CB        11.5330    5.8130   32.6130 C.3    77  THR77       0.1784
     87  OG1       11.3800    6.2890   33.9610 O.3    77  THR77      -0.2211
     88  CG2       11.2400    4.3210   32.5450 C.3    77  THR77       0.0376
     89  N         14.1540    8.1870   32.5150 N.am   78  ILE78      -0.1965
     90  CA        14.3320    9.6280   32.4410 C.3    78  ILE78       0.1727
     91  C         14.3110   10.2270   31.0350 C.2    78  ILE78       0.2616
     92  O         14.0350   11.4080   30.8790 O.2    78  ILE78      -0.2715
     93  CB        15.6330   10.0630   33.1610 C.3    78  ILE78       0.0290
     94  CG1       16.8500    9.3930   32.5160 C.3    78  ILE78       0.0022
     95  CG2       15.5520    9.6880   34.6410 C.3    78  ILE78       0.0023
     96  CD1       18.1780    9.8060   33.1350 C.3    78  ILE78       0.0001
     97  N         14.5790    9.4210   30.0130 N.am   79  TRP79      -0.1974
     98  CA        14.5930    9.9310   28.6410 C.3    79  TRP79       0.1640
     99  C         13.4670    9.4420   27.7360 C.2    79  TRP79       0.2290
    100  O         13.5470    9.5810   26.5170 O.2    79  TRP79      -0.2864
    101  CB        15.9310    9.6040   27.9740 C.3    79  TRP79       0.0576
    102  CG        17.0520   10.4900   28.4140 C.ar   79  TRP79       0.0006
    103  CD1       17.9830   10.2260   29.3790 C.ar   79  TRP79       0.0946
    104  CD2       17.3400   11.8070   27.9270 C.ar   79  TRP79       0.0152
    105  NE1       18.8290   11.2950   29.5220 N.ar   79  TRP79      -0.2442
    106  CE2       18.4580   12.2800   28.6440 C.ar   79  TRP79       0.0810
    107  CE3       16.7590   12.6310   26.9560 C.ar   79  TRP79       0.0012
    108  CZ2       19.0110   13.5460   28.4210 C.ar   79  TRP79       0.0191
    109  CZ3       17.3080   13.8910   26.7330 C.ar   79  TRP79       0.0001
    110  CH2       18.4250   14.3350   27.4650 C.ar   79  TRP79       0.0015
    111  N         11.1940   12.0630   25.2120 N.3    82  TRP82      -0.1241
    112  CA        11.7330   12.6330   23.9820 C.3    82  TRP82       0.1605
    113  C         12.1730   11.6330   22.9190 C.2    82  TRP82       0.2264
    114  O         12.5080   12.0230   21.8050 O.2    82  TRP82      -0.2867
    115  CB        12.9020   13.5540   24.3380 C.3    82  TRP82       0.0550
    116  CG        12.5250   14.6240   25.3210 C.ar   82  TRP82       0.0003
    117  CD1       12.0360   15.8660   25.0350 C.ar   82  TRP82       0.0946
    118  CD2       12.5590   14.5270   26.7540 C.ar   82  TRP82       0.0152
    119  NE1       11.7620   16.5470   26.1990 N.ar   82  TRP82      -0.2442
    120  CE2       12.0730   15.7480   27.2670 C.ar   82  TRP82       0.0810
    121  CE3       12.9510   13.5230   27.6530 C.ar   82  TRP82       0.0012
    122  CZ2       11.9670   15.9950   28.6440 C.ar   82  TRP82       0.0191
    123  CZ3       12.8440   13.7680   29.0230 C.ar   82  TRP82       0.0001
    124  CH2       12.3560   14.9950   29.5020 C.ar   82  TRP82       0.0015
    125  N         16.5260   17.1180   21.5920 N.3   142  LEU142     -0.1245
    126  CA        16.6040   18.1710   22.5910 C.3   142  LEU142      0.1561
    127  C         18.0350   18.6990   22.5440 C.2   142  LEU142      0.2260
    128  O         18.9850   17.9160   22.6170 O.2   142  LEU142     -0.2867
    129  CB        16.3150   17.5790   23.9750 C.3   142  LEU142      0.0270
    130  CG        15.7260   18.4600   25.0770 C.3   142  LEU142      0.0019
    131  CD1       14.3240   18.9130   24.6740 C.3   142  LEU142      0.0001
    132  CD2       15.6710   17.6700   26.3800 C.3   142  LEU142      0.0001
    133  N         21.9350   20.4570   27.2690 N.3   145  CYS145     -0.1221
    134  CA        21.8150   21.4210   28.3560 C.3   145  CYS145      0.1808
    135  C         23.2280   21.5770   28.9390 C.2   145  CYS145      0.2601
    136  O         23.7230   22.6940   29.0650 O.2   145  CYS145     -0.2717
    137  CB        20.8250   20.9180   29.4030 C.3   145  CYS145      0.0970
    138  SG        19.1300   20.7520   28.7400 S.3   145  CYS145     -0.0800
    139  N         23.8620   20.4590   29.3050 N.am  146  HIS146     -0.1975
    140  CA        25.2440   20.4980   29.7800 C.3   146  HIS146      0.1656
    141  C         25.9590   20.3230   28.4480 C.2   146  HIS146      0.2291
    142  O         26.1370   19.2150   27.9530 O.2   146  HIS146     -0.2864
    143  CB        25.5680   19.3620   30.7820 C.3   146  HIS146      0.0771
    144  CG        24.8770   18.0650   30.5110 C.ar  146  HIS146      0.0820
    145  ND1       25.5390   16.9570   30.0220 N.ar  146  HIS146     -0.2267
    146  CD2       23.5920   17.6790   30.7100 C.ar  146  HIS146      0.1154
    147  CE1       24.6920   15.9450   29.9340 C.ar  146  HIS146      0.1986
    148  NE2       23.5050   16.3580   30.3450 N.ar  146  HIS146     -0.2212
    149  N         17.2190   23.2160   34.6170 N.3   168  ASP168     -0.1239
    150  CA        16.0030   23.0050   35.3810 C.3   168  ASP168      0.1674
    151  C         16.5660   22.7540   36.7860 C.2   168  ASP168      0.2266
    152  O         16.9500   21.6340   37.1260 O.2   168  ASP168     -0.2867
    153  CB        15.2830   21.7620   34.8730 C.3   168  ASP168      0.1410
    154  CG        13.9490   21.5500   35.5440 C.2   168  ASP168      0.3668
    155  OD1       13.7490   22.0680   36.6700 O.co2 168  ASP168     -0.2456
    156  OD2       13.1090   20.8460   34.9460 O.co2 168  ASP168     -0.2456
    157  N         14.5360   19.9120   39.0790 N.3   171  LEU171     -0.1231
    158  CA        14.6080   18.5570   38.5550 C.3   171  LEU171      0.1693
    159  C         15.9140   18.1110   37.8850 C.2   171  LEU171      0.2592
    160  O         16.3580   16.9770   38.0800 O.2   171  LEU171     -0.2718
    161  CB        13.4410   18.3540   37.5880 C.3   171  LEU171      0.0284
    162  CG        12.6240   17.0600   37.6860 C.3   171  LEU171      0.0019
    163  CD1       12.0340   16.9040   39.0810 C.3   171  LEU171      0.0001
    164  CD2       11.5120   17.0920   36.6480 C.3   171  LEU171      0.0001
    165  N         16.5400   18.9890   37.1070 N.am  172  GLY172     -0.1957
    166  CA        17.7490   18.5830   36.4100 C.3   172  GLY172      0.1869
    167  C         19.0910   18.6860   37.1090 C.2   172  GLY172      0.2309
    168  O         19.8930   17.7410   37.0820 O.2   172  GLY172     -0.2863
    169  N         20.7130   15.7740   39.2310 N.3   175  PHE175     -0.1227
    170  CA        21.2720   14.6790   38.4360 C.3   175  PHE175      0.1736
    171  C         22.5710   15.0990   37.7460 C.2   175  PHE175      0.2595
    172  O         23.5780   14.3970   37.8120 O.2   175  PHE175     -0.2718
    173  CB        20.2690   14.2320   37.3690 C.3   175  PHE175      0.0547
    174  CG        19.2730   13.2130   37.8520 C.ar  175  PHE175     -0.0202
    175  CD1       18.6330   13.3650   39.0800 C.ar  175  PHE175     -0.0042
    176  CD2       18.9630   12.1060   37.0690 C.ar  175  PHE175     -0.0042
    177  CE1       17.6980   12.4270   39.5210 C.ar  175  PHE175     -0.0003
    178  CE2       18.0310   11.1660   37.5010 C.ar  175  PHE175     -0.0003
    179  CZ        17.3970   11.3280   38.7320 C.ar  175  PHE175     -0.0000
    180  N         22.5380   16.2520   37.0900 N.am  176  ASN176     -0.1974
    181  CA        23.6910   16.7630   36.3650 C.3   176  ASN176      0.1688
    182  C         24.9230   16.9530   37.2310 C.2   176  ASN176      0.2292
    183  O         26.0390   16.6760   36.7990 O.2   176  ASN176     -0.2864
    184  CB        23.3240   18.0800   35.6940 C.3   176  ASN176      0.1181
    185  CG        22.2160   17.9190   34.6830 C.2   176  ASN176      0.2629
    186  OD1       21.5380   18.8800   34.3400 O.2   176  ASN176     -0.2716
    187  ND2       22.0300   16.6970   34.1900 N.am  176  ASN176     -0.0877
    188  N         10.7680   26.0810   37.3500 N.3   208  TYR208     -0.1241
    189  CA         9.4900   26.0870   36.6500 C.3   208  TYR208      0.1605
    190  C          8.3680   26.5200   37.6010 C.2   208  TYR208      0.2264
    191  O          8.4270   26.2630   38.8110 O.2   208  TYR208     -0.2867
    192  CB         9.2090   24.6940   36.0680 C.3   208  TYR208      0.0534
    193  CG         9.9450   24.4340   34.7700 C.ar  208  TYR208     -0.0201
    194  CD1        9.5230   25.0330   33.5800 C.ar  208  TYR208     -0.0009
    195  CD2       11.1070   23.6570   34.7420 C.ar  208  TYR208     -0.0009
    196  CE1       10.2380   24.8740   32.3960 C.ar  208  TYR208      0.0417
    197  CE2       11.8360   23.4920   33.5620 C.ar  208  TYR208      0.0417
    198  CZ        11.3950   24.1060   32.3960 C.ar  208  TYR208      0.1957
    199  OH        12.1180   23.9770   31.2350 O.3   208  TYR208     -0.2866
    200  N         10.7010   14.5190   46.9520 N.3   257  ILE257     -0.1231
    201  CA         9.6440   15.4670   46.6200 C.3   257  ILE257      0.1692
    202  C          9.3350   15.2770   45.1360 C.2   257  ILE257      0.2592
    203  O         10.2490   15.1990   44.3150 O.2   257  ILE257     -0.2718
    204  CB        10.1120   16.9220   46.8580 C.3   257  ILE257      0.0266
    205  CG1       10.6960   17.0560   48.2660 C.3   257  ILE257      0.0019
    206  CG2        8.9480   17.8890   46.6710 C.3   257  ILE257      0.0020
    207  CD1       11.1800   18.4560   48.6020 C.3   257  ILE257      0.0001
    208  N          8.0570   15.1930   44.7820 N.am  258  LYS258     -0.1966
    209  CA         7.7010   14.9940   43.3780 C.3   258  LYS258      0.1728
    210  C          7.2940   16.2630   42.6470 C.2   258  LYS258      0.2616
    211  O          6.7340   17.1920   43.2330 O.2   258  LYS258     -0.2715
    212  CB         6.6080   13.9320   43.2570 C.3   258  LYS258      0.0311
    213  CG         7.0980   12.5500   43.6660 C.3   258  LYS258      0.0038
    214  CD         8.2750   12.1140   42.7810 C.3   258  LYS258      0.0206
    215  CE         9.3310   11.2960   43.5460 C.3   258  LYS258      0.1093
    216  NZ        10.1400   12.1100   44.5200 N.3   258  LYS258     -0.1314
    217  N          7.5970   16.2990   41.3550 N.am  259  ALA259     -0.1977
    218  CA         7.2740   17.4560   40.5340 C.3   259  ALA259      0.1597
    219  C          7.1480   17.0630   39.0640 C.2   259  ALA259      0.2287
    220  O          7.7590   16.0890   38.6150 O.2   259  ALA259     -0.2864
    221  CB         8.3470   18.5290   40.7030 C.3   259  ALA259      0.0319
    222  N          7.5180   17.1090   34.9450 N.3   261  VAL261     -0.1231
    223  CA         8.6600   17.2980   34.0620 C.3   261  VAL261      0.1692
    224  C          8.1740   18.0570   32.8370 C.2   261  VAL261      0.2591
    225  O          7.3880   17.5230   32.0570 O.2   261  VAL261     -0.2718
    226  CB         9.2490   15.9490   33.5930 C.3   261  VAL261      0.0266
    227  CG1       10.6160   16.1710   32.9680 C.3   261  VAL261      0.0020
    228  CG2        9.3370   14.9820   34.7600 C.3   261  VAL261      0.0020
    229  N          8.6290   19.2990   32.6780 N.am  262  ALA262     -0.1980
    230  CA         8.2380   20.1260   31.5330 C.3   262  ALA262      0.1597
    231  C          8.7980   19.5230   30.2500 C.2   262  ALA262      0.2287
    232  O         10.0130   19.4400   30.0700 O.2   262  ALA262     -0.2864
    233  CB         8.7510   21.5530   31.7110 C.3   262  ALA262      0.0319
@<TRIPOS>BOND
     1   125   126    1
     2   114   113    2
     3   127   126    1
     4   127   128    2
     5   126   129    1
     6   113   112    1
     7     7     6    1
     8     7     8    1
     9     6     5    1
    10   129   130    1
    11   112   115    1
    12   112   111    1
    13   115   116    1
    14     4     3    2
    15     5     2    1
    16     8     9    2
    17   131   130    1
    18    10     9    1
    19     2     3    1
    20     2     1    1
    21   117   116   ar
    22   117   119   ar
    23   130   132    1
    24     9    11    1
    25   116   118   ar
    26   119   120   ar
    27   100    99    2
    28   109   107   ar
    29   109   110   ar
    30   118   120   ar
    31   118   121   ar
    32   107   104   ar
    33   120   122   ar
    34   133   134    1
    35   110   108   ar
    36   121   123   ar
    37    99    98    1
    38   104   102   ar
    39   104   106   ar
    40   142   141    2
    41   101   102    1
    42   101    98    1
    43   134   135    1
    44   134   137    1
    45   102   103   ar
    46   108   106   ar
    47   141   140    1
    48    98    97    1
    49   122   124   ar
    50   106   105   ar
    51   138   137    1
    52   135   136    2
    53   135   139   am
    54   123   124   ar
    55   139   140    1
    56   103   105   ar
    57   140   143    1
    58   147   145   ar
    59   147   148   ar
    60    97    91   am
    61   145   144   ar
    62   232   231    2
    63   231   230    1
    64   148   146   ar
    65    68    67    2
    66   144   146   ar
    67   144   143    1
    68    92    91    2
    69    91    90    1
    70   199   198    1
    71    73    71   ar
    72    85    84    2
    73    70    71    1
    74    70    69    1
    75   230   233    1
    76   230   229    1
    77    67    66    1
    78    71    72   ar
    79    84    83    1
    80    84    89   am
    81   225   224    2
    82    66    69    1
    83    66    65    1
    84    83    86    1
    85    83    82    1
    86   198   196   ar
    87   198   197   ar
    88   196   194   ar
    89    90    89    1
    90    90    93    1
    91    94    96    1
    92    94    93    1
    93    88    86    1
    94    86    87    1
    95   229   224   am
    96   224   223    1
    97   227   226    1
    98    93    95    1
    99   197   195   ar
   100   194   193   ar
   101   226   223    1
   102   226   228    1
   103    74    75    1
   104   223   222    1
   105   187   185   am
   106   186   185    2
   107    75    76    1
   108    75    78    1
   109    76    77    2
   110   149   150    1
   111   185   184    1
   112   195   193   ar
   113   193   192    1
   114   153   150    1
   115   153   154    1
   116    80    79    2
   117   156   154   ar
   118   150   151    1
   119    62    61    2
   120   154   155   ar
   121    79    78    1
   122    79    81   am
   123   184   181    1
   124   192   189    1
   125   181   180    1
   126   181   182    1
   127   166   165    1
   128   166   167    1
   129    61    60    1
   130   164   162    1
   131   189   188    1
   132   189   190    1
   133   151   152    2
   134   183   182    2
   135    60    63    1
   136    60    59    1
   137    63    64    1
   138   176   178   ar
   139   176   174   ar
   140   168   167    2
   141   180   171   am
   142   165   159   am
   143    51    50    2
   144   173   174    1
   145   173   170    1
   146   178   179   ar
   147   161   162    1
   148   161   158    1
   149   190   191    2
   150   162   163    1
   151   171   172    2
   152   171   170    1
   153   174   175   ar
   154   159   160    2
   155   159   158    1
   156    59    50   am
   157    50    49    1
   158   170   169    1
   159   158   157    1
   160   220   219    2
   161   179   177   ar
   162    53    54    1
   163    53    52    1
   164   219   218    1
   165   175   177   ar
   166    54    55    1
   167    49    52    1
   168    49    48    1
   169    46    44   ar
   170    46    47   ar
   171    44    43   ar
   172    41    40    2
   173   218   221    1
   174   218   217    1
   175    55    56    2
   176    47    45   ar
   177    57    56    1
   178    43    42    1
   179    43    45   ar
   180    42    39    1
   181   217   210   am
   182    56    58    1
   183    40    39    1
   184    39    38    1
   185   210   211    2
   186   210   209    1
   187   214   215    1
   188   214   213    1
   189    38    34   am
   190    20    19    1
   191   212   209    1
   192   212   213    1
   193   209   208    1
   194   215   216    1
   195    19    18    1
   196    34    33    1
   197    34    35    2
   198    36    37    1
   199    36    33    1
   200   203   202    2
   201    33    32    1
   202   208   202   am
   203   202   201    1
   204    18    17    1
   205    24    23    2
   206    32    23   am
   207    23    22    1
   208    17    16    1
   209   201   204    1
   210   201   200    1
   211   206   204    1
   212   204   205    1
   213    26    27    1
   214    26    25    1
   215    15    14    2
   216    22    25    1
   217    22    21    1
   218    16    13    1
   219    27    28    1
   220   205   207    1
   221    14    21   am
   222    14    13    1
   223    13    12    1
   224    28    29    2
   225    29    30    1
   226    29    31    1
