@<TRIPOS>MOLECULE
tmp/1jtxC00.pdb
 166 157 0 0 0
SMALL
GASTEIGER

@<TRIPOS>ATOM
      1  N        -58.2170  -46.0430    9.0070 N.3    56  GLU56      -0.1245
      2  CA       -58.7090  -46.0060    7.6280 C.3    56  GLU56       0.1567
      3  C        -59.4910  -44.7240    7.3150 C.2    56  GLU56       0.2260
      4  O        -59.3940  -44.1490    6.2410 O.2    56  GLU56      -0.2867
      5  CB       -59.6070  -47.2130    7.3680 C.3    56  GLU56       0.0388
      6  CG       -58.8930  -48.5470    7.4490 C.3    56  GLU56       0.1160
      7  CD       -57.7100  -48.6540    6.4690 C.2    56  GLU56       0.3649
      8  OE1      -57.9240  -48.4720    5.2370 O.co2  56  GLU56      -0.2457
      9  OE2      -56.5710  -48.9200    6.9440 O.co2  56  GLU56      -0.2457
     10  N        -58.6190  -41.8220    4.5420 N.3    60  TRP60      -0.1241
     11  CA       -59.6620  -41.3740    3.6360 C.3    60  TRP60       0.1605
     12  C        -59.8260  -39.8690    3.6850 C.2    60  TRP60       0.2264
     13  O        -59.9480  -39.2410    2.6530 O.2    60  TRP60      -0.2867
     14  CB       -61.0040  -42.0380    3.9720 C.3    60  TRP60       0.0550
     15  CG       -62.2050  -41.3850    3.3070 C.ar   60  TRP60       0.0003
     16  CD1      -62.9790  -40.3820    3.8160 C.ar   60  TRP60       0.0946
     17  CD2      -62.7060  -41.6430    1.9930 C.ar   60  TRP60       0.0152
     18  NE1      -63.9260  -39.9960    2.8980 N.ar   60  TRP60      -0.2442
     19  CE2      -63.7810  -40.7540    1.7700 C.ar   60  TRP60       0.0810
     20  CE3      -62.3490  -42.5360    0.9810 C.ar   60  TRP60       0.0012
     21  CZ2      -64.4980  -40.7310    0.5800 C.ar   60  TRP60       0.0191
     22  CZ3      -63.0590  -42.5120   -0.1990 C.ar   60  TRP60       0.0001
     23  CH2      -64.1230  -41.6140   -0.3920 C.ar   60  TRP60       0.0015
     24  N        -67.1610  -41.9470   -3.0700 N.3    85  SER85      -0.1217
     25  CA       -67.6020  -42.9260   -2.0780 C.3    85  SER85       0.1889
     26  C        -68.1240  -44.1430   -2.7900 C.2    85  SER85       0.2288
     27  O        -67.9950  -45.2510   -2.3170 O.2    85  SER85      -0.2866
     28  CB       -68.7200  -42.3510   -1.2170 C.3    85  SER85       0.2089
     29  OG       -68.4110  -41.0390   -0.7840 O.3    85  SER85      -0.2183
     30  N        -64.7540  -45.7960   -4.7390 N.3    88  THR88      -0.1203
     31  CA       -63.7630  -46.4300   -3.8890 C.3    88  THR88       0.1994
     32  C        -64.3580  -47.6540   -3.2280 C.2    88  THR88       0.2617
     33  O        -63.6650  -48.6260   -3.0240 O.2    88  THR88      -0.2717
     34  CB       -63.1990  -45.5160   -2.7820 C.3    88  THR88       0.1784
     35  OG1      -64.1510  -45.4210   -1.7300 O.3    88  THR88      -0.2211
     36  CG2      -62.8810  -44.1480   -3.3020 C.3    88  THR88       0.0376
     37  N        -65.6410  -47.6490   -2.9070 N.am   89  GLU89      -0.1979
     38  CA       -66.2020  -48.8250   -2.2470 C.3    89  GLU89       0.1602
     39  C        -66.2310  -50.0280   -3.1640 C.2    89  GLU89       0.2287
     40  O        -66.0970  -51.1540   -2.7180 O.2    89  GLU89      -0.2864
     41  CB       -67.6130  -48.5520   -1.7240 C.3    89  GLU89       0.0415
     42  CG       -67.7770  -48.8320   -0.2240 C.3    89  GLU89       0.1163
     43  CD       -68.6260  -47.7740    0.5260 C.2    89  GLU89       0.3649
     44  OE1      -68.3370  -46.5550    0.3890 O.co2  89  GLU89      -0.2457
     45  OE2      -69.5770  -48.1560    1.2640 O.co2  89  GLU89      -0.2457
     46  N        -62.9500  -51.5070   -2.1510 N.3    92  TYR92      -0.1241
     47  CA       -62.3600  -51.3630   -0.8120 C.3    92  TYR92       0.1605
     48  C        -62.2220  -52.7740   -0.2610 C.2    92  TYR92       0.2264
     49  O        -63.2060  -53.4850   -0.0780 O.2    92  TYR92      -0.2867
     50  CB       -63.2470  -50.5370    0.1090 C.3    92  TYR92       0.0534
     51  CG       -62.5160  -50.1540    1.3680 C.ar   92  TYR92      -0.0201
     52  CD1      -63.0410  -50.4380    2.6320 C.ar   92  TYR92      -0.0009
     53  CD2      -61.2520  -49.5660    1.2940 C.ar   92  TYR92      -0.0009
     54  CE1      -62.3150  -50.1500    3.7810 C.ar   92  TYR92       0.0417
     55  CE2      -60.5220  -49.2790    2.4350 C.ar   92  TYR92       0.0417
     56  CZ       -61.0550  -49.5740    3.6690 C.ar   92  TYR92       0.1957
     57  OH       -60.3130  -49.3000    4.7910 O.3    92  TYR92      -0.2866
     58  N        -64.0800  -53.7120    3.0550 N.3    95  GLN95      -0.1245
     59  CA       -65.5330  -53.6840    2.9070 C.3    95  GLN95       0.1566
     60  C        -66.2580  -54.9140    3.4330 C.2    95  GLN95       0.2260
     61  O        -67.2800  -54.7890    4.0980 O.2    95  GLN95      -0.2867
     62  CB       -65.9080  -53.4510    1.4370 C.3    95  GLN95       0.0367
     63  CG       -67.3840  -53.1380    1.1910 C.3    95  GLN95       0.0905
     64  CD       -67.8870  -51.9250    1.9950 C.2    95  GLN95       0.2608
     65  OE1      -67.2380  -50.8680    2.0330 O.2    95  GLN95      -0.2717
     66  NE2      -69.0590  -52.0750    2.6290 N.am   95  GLN95      -0.0878
     67  N        -65.7780  -55.3090    7.2320 N.3    98  ILE98      -0.1231
     68  CA       -66.6340  -54.3100    7.8540 C.3    98  ILE98       0.1692
     69  C        -68.0270  -54.9180    8.0750 C.2    98  ILE98       0.2591
     70  O        -68.4880  -55.0280    9.2080 O.2    98  ILE98      -0.2718
     71  CB       -66.8870  -53.0440    6.9830 C.3    98  ILE98       0.0266
     72  CG1      -65.8300  -51.9580    7.2060 C.3    98  ILE98       0.0019
     73  CG2      -68.2090  -52.4240    7.4040 C.3    98  ILE98       0.0020
     74  CD1      -64.5290  -52.2380    6.6460 C.3    98  ILE98       0.0001
     75  N        -68.6910  -55.3000    6.9820 N.am   99  ILE99      -0.1980
     76  CA       -70.0430  -55.8650    7.0460 C.3    99  ILE99       0.1595
     77  C        -70.1650  -57.0010    8.0480 C.2    99  ILE99       0.2287
     78  O        -71.0900  -57.0360    8.8540 O.2    99  ILE99      -0.2864
     79  CB       -70.4990  -56.3830    5.6740 C.3    99  ILE99       0.0276
     80  CG1      -70.4330  -55.2430    4.6610 C.3    99  ILE99       0.0022
     81  CG2      -71.9110  -56.9390    5.7560 C.3    99  ILE99       0.0022
     82  CD1      -70.5250  -55.6840    3.2290 C.3    99  ILE99       0.0001
     83  N        -70.1190  -54.9900   11.5160 N.3   102  TYR102     -0.1227
     84  CA       -71.2510  -54.1090   11.7500 C.3   102  TYR102      0.1736
     85  C        -72.5390  -54.9040   11.9790 C.2   102  TYR102      0.2596
     86  O        -73.4100  -54.4740   12.7210 O.2   102  TYR102     -0.2718
     87  CB       -71.3540  -53.1560   10.5470 C.3   102  TYR102      0.0548
     88  CG       -72.5430  -52.2010   10.4750 C.ar  102  TYR102     -0.0200
     89  CD1      -72.3460  -50.8380   10.1890 C.ar  102  TYR102     -0.0009
     90  CD2      -73.8610  -52.6640   10.5740 C.ar  102  TYR102     -0.0009
     91  CE1      -73.4240  -49.9690    9.9980 C.ar  102  TYR102      0.0417
     92  CE2      -74.9420  -51.8030   10.3870 C.ar  102  TYR102      0.0417
     93  CZ       -74.7130  -50.4630   10.1000 C.ar  102  TYR102      0.1957
     94  OH       -75.7800  -49.6190    9.9180 O.3   102  TYR102     -0.2866
     95  N        -72.6490  -56.0760   11.3650 N.am  103  THR103     -0.1953
     96  CA       -73.8460  -56.8930   11.5120 C.3   103  THR103      0.1897
     97  C        -73.7100  -57.8760   12.6470 C.2   103  THR103      0.2313
     98  O        -74.4830  -58.8190   12.7520 O.2   103  THR103     -0.2863
     99  CB       -74.1410  -57.7150   10.2600 C.3   103  THR103      0.1794
    100  OG1      -73.1620  -58.7490   10.1440 O.3   103  THR103     -0.2208
    101  CG2      -74.1070  -56.8390    9.0150 C.3   103  THR103      0.0378
    102  N        -68.5770  -46.5180   17.1530 N.3   115  MET115     -0.1245
    103  CA       -68.8850  -46.5950   15.7280 C.3   115  MET115      0.1570
    104  C        -69.6840  -45.3850   15.3040 C.2   115  MET115      0.2261
    105  O        -69.9730  -45.2070   14.1230 O.2   115  MET115     -0.2867
    106  CB       -69.6900  -47.8580   15.3860 C.3   115  MET115      0.0387
    107  CG       -68.8310  -49.0570   14.9850 C.3   115  MET115      0.0595
    108  SD       -69.5230  -50.1220   13.6670 S.3   115  MET115     -0.1393
    109  CE       -68.9520  -49.3000   12.1380 C.3   115  MET115      0.0692
    110  N        -68.7170  -42.4730   12.3980 N.3   119  GLU119     -0.1245
    111  CA       -69.5810  -42.0430   11.3170 C.3   119  GLU119      0.1567
    112  C        -69.6440  -40.5420   11.3040 C.2   119  GLU119      0.2260
    113  O        -69.7720  -39.9290   10.2430 O.2   119  GLU119     -0.2867
    114  CB       -70.9890  -42.6110   11.4810 C.3   119  GLU119      0.0388
    115  CG       -71.0690  -44.1380   11.4800 C.3   119  GLU119      0.1160
    116  CD       -72.5030  -44.6590   11.6560 C.2   119  GLU119      0.3649
    117  OE1      -72.6960  -45.8970   11.7730 O.co2 119  GLU119     -0.2457
    118  OE2      -73.4410  -43.8270   11.6730 O.co2 119  GLU119     -0.2457
    119  N        -67.1730  -39.1390    9.0700 N.3   122  TYR122     -0.1227
    120  CA       -67.5420  -39.2130    7.6710 C.3   122  TYR122      0.1736
    121  C        -68.5330  -38.0910    7.3580 C.2   122  TYR122      0.2595
    122  O        -68.4640  -37.4780    6.3030 O.2   122  TYR122     -0.2718
    123  CB       -68.1550  -40.5740    7.3470 C.3   122  TYR122      0.0548
    124  CG       -68.5830  -40.7000    5.9070 C.ar  122  TYR122     -0.0200
    125  CD1      -67.6710  -41.0520    4.9000 C.ar  122  TYR122     -0.0009
    126  CD2      -69.8970  -40.4150    5.5360 C.ar  122  TYR122     -0.0009
    127  CE1      -68.0700  -41.1120    3.5460 C.ar  122  TYR122      0.0417
    128  CE2      -70.3050  -40.4680    4.1980 C.ar  122  TYR122      0.0417
    129  CZ       -69.3940  -40.8130    3.2120 C.ar  122  TYR122      0.1957
    130  OH       -69.8330  -40.8340    1.9090 O.3   122  TYR122     -0.2866
    131  N        -69.4450  -37.8130    8.2790 N.am  123  ILE123     -0.1980
    132  CA       -70.4380  -36.7500    8.0940 C.3   123  ILE123      0.1595
    133  C        -69.8130  -35.3390    8.0510 C.2   123  ILE123      0.2287
    134  O        -70.3960  -34.3950    7.5070 O.2   123  ILE123     -0.2864
    135  CB       -71.4900  -36.8180    9.2270 C.3   123  ILE123      0.0276
    136  CG1      -72.2800  -38.1120    9.1080 C.3   123  ILE123      0.0022
    137  CG2      -72.4410  -35.6850    9.1440 C.3   123  ILE123      0.0022
    138  CD1      -73.1600  -38.3870   10.2750 C.3   123  ILE123      0.0001
    139  N        -75.1350  -37.8990    3.9790 N.3   152  ALA152     -0.1231
    140  CA       -74.3430  -39.0660    4.2600 C.3   152  ALA152      0.1694
    141  C        -75.1380  -40.3520    4.1170 C.2   152  ALA152      0.2592
    142  O        -74.7270  -41.2590    3.4030 O.2   152  ALA152     -0.2718
    143  CB       -73.7900  -38.9760    5.6140 C.3   152  ALA152      0.0304
    144  N        -76.2900  -40.4260    4.7760 N.am  153  ASN153     -0.1974
    145  CA       -77.1110  -41.6290    4.7280 C.3   153  ASN153      0.1688
    146  C        -77.7990  -41.8920    3.3950 C.2   153  ASN153      0.2292
    147  O        -77.9170  -43.0410    2.9790 O.2   153  ASN153     -0.2864
    148  CB       -78.1200  -41.5960    5.8720 C.3   153  ASN153      0.1181
    149  CG       -77.4390  -41.6260    7.2170 C.2   153  ASN153      0.2629
    150  OD1      -76.9750  -42.6630    7.6680 O.2   153  ASN153     -0.2716
    151  ND2      -77.3340  -40.4800    7.8430 N.am  153  ASN153     -0.0877
    152  N        -74.8920  -43.2170    1.1900 N.3   156  ASN156     -0.1240
    153  CA       -74.4690  -44.5730    1.5180 C.3   156  ASN156      0.1653
    154  C        -75.5190  -45.5760    1.1620 C.2   156  ASN156      0.2266
    155  O        -75.2160  -46.7430    0.8910 O.2   156  ASN156     -0.2867
    156  CB       -74.1060  -44.7110    2.9850 C.3   156  ASN156      0.1155
    157  CG       -72.9810  -43.7830    3.3760 C.2   156  ASN156      0.2627
    158  OD1      -71.9250  -43.7080    2.7030 O.2   156  ASN156     -0.2716
    159  ND2      -73.1960  -43.0490    4.4610 N.am  156  ASN156     -0.0877
    160  N        -74.5570  -48.7180   -0.8780 N.3   160  THR160     -0.1218
    161  CA       -74.8290  -50.0430   -0.3360 C.3   160  THR160      0.1862
    162  C        -75.8560  -50.9370   -1.0080 C.2   160  THR160      0.2287
    163  O        -75.6310  -52.1320   -1.1250 O.2   160  THR160     -0.2866
    164  CB       -75.2810  -49.9750    1.1110 C.3   160  THR160      0.1770
    165  OG1      -74.3220  -49.2610    1.8940 O.3   160  THR160     -0.2211
    166  CG2      -75.4340  -51.3590    1.6640 C.3   160  THR160      0.0375
@<TRIPOS>BOND
     1    30    31    1
     2    31    32    1
     3    31    34    1
     4    36    34    1
     5    32    33    2
     6    32    37   am
     7    39    40    2
     8    39    38    1
     9    24    25    1
    10    37    38    1
    11    26    27    2
    12    26    25    1
    13    34    35    1
    14    38    41    1
    15    46    47    1
    16    25    28    1
    17    41    42    1
    18    28    29    1
    19   163   162    2
    20   162   161    1
    21   160   161    1
    22    47    48    1
    23    47    50    1
    24    23    22   ar
    25    23    21   ar
    26   161   164    1
    27    48    49    2
    28    42    43    1
    29    22    20   ar
    30    50    51    1
    31    44    43   ar
    32    43    45   ar
    33    21    19   ar
    34   155   154    2
    35    20    17   ar
    36   164   166    1
    37   164   165    1
    38   154   153    1
    39   152   153    1
    40    63    62    1
    41    63    64    1
    42    53    51   ar
    43    53    55   ar
    44    51    52   ar
    45    62    59    1
    46   153   156    1
    47    19    17   ar
    48    19    18   ar
    49   130   129    1
    50    17    15   ar
    51    64    65    2
    52    64    66   am
    53    55    56   ar
    54    52    54   ar
    55    13    12    2
    56   158   157    2
    57    18    16   ar
    58    59    58    1
    59    59    60    1
    60   147   146    2
    61   156   157    1
    62   129   127   ar
    63   129   128   ar
    64    82    80    1
    65    15    16   ar
    66    15    14    1
    67   157   159   am
    68   146   145    1
    69   142   141    2
    70    60    61    2
    71   127   125   ar
    72    11    12    1
    73    11    14    1
    74    11    10    1
    75    56    54   ar
    76    56    57    1
    77   139   140    1
    78   141   140    1
    79   141   144   am
    80   128   126   ar
    81   140   143    1
    82    80    79    1
    83   145   144    1
    84   145   148    1
    85   125   124   ar
    86     8     7   ar
    87   126   124   ar
    88    79    81    1
    89    79    76    1
    90   148   149    1
    91   124   123    1
    92     4     3    2
    93   122   121    2
    94     7     9   ar
    95     7     6    1
    96    74    72    1
    97    75    76    1
    98    75    69   am
    99    71    72    1
   100    71    73    1
   101    71    68    1
   102    76    77    1
   103   149   150    2
   104   149   151   am
   105    67    68    1
   106     3     2    1
   107   123   120    1
   108   121   120    1
   109   121   131   am
   110     5     6    1
   111     5     2    1
   112   134   133    2
   113     2     1    1
   114   120   119    1
   115    68    69    1
   116    77    78    2
   117   133   132    1
   118    69    70    2
   119   132   131    1
   120   132   135    1
   121   101    99    1
   122   136   135    1
   123   136   138    1
   124   137   135    1
   125    94    93    1
   126    91    93   ar
   127    91    89   ar
   128    93    92   ar
   129   100    99    1
   130    89    88   ar
   131   113   112    2
   132    99    96    1
   133    92    90   ar
   134    88    87    1
   135    88    90   ar
   136    87    84    1
   137   112   111    1
   138   111   114    1
   139   111   110    1
   140    95    96    1
   141    95    85   am
   142   115   114    1
   143   115   116    1
   144    96    97    1
   145    83    84    1
   146   116   118   ar
   147   116   117   ar
   148    84    85    1
   149    85    86    2
   150   109   108    1
   151    97    98    2
   152   108   107    1
   153   105   104    2
   154   107   106    1
   155   104   103    1
   156   106   103    1
   157   103   102    1
