@<TRIPOS>MOLECULE
tmp/1ju2B01.pdb
 94 91 0 0 0
SMALL
GASTEIGER

@<TRIPOS>ATOM
      1  N         33.6030   54.1570   80.2340 N.3   116  ARG116     -0.1245
      2  CA        32.9860   52.9660   79.6780 C.3   116  ARG116      0.1563
      3  C         32.0530   53.4940   78.6060 C.2   116  ARG116      0.2260
      4  O         31.6140   54.6430   78.6740 O.2   116  ARG116     -0.2867
      5  CB        32.1700   52.2150   80.7300 C.3   116  ARG116      0.0307
      6  CG        33.0040   51.4880   81.7570 C.3   116  ARG116      0.0489
      7  CD        32.1070   50.6190   82.6100 C.3   116  ARG116      0.2205
      8  NE        32.8680   49.8000   83.5440 N.pl3 116  ARG116     -0.0865
      9  CZ        32.3300   48.8520   84.3040 C.cat 116  ARG116      0.5346
     10  NH1       31.0260   48.6040   84.2380 N.pl3 116  ARG116      0.1354
     11  NH2       33.0970   48.1440   85.1220 N.pl3 116  ARG116      0.1354
     12  N         25.9770   52.8210   77.6000 N.3   119  THR119     -0.1218
     13  CA        25.3260   51.5150   77.6830 C.3   119  THR119      0.1862
     14  C         24.2040   51.2880   76.6750 C.2   119  THR119      0.2287
     15  O         23.7540   50.1570   76.4930 O.2   119  THR119     -0.2866
     16  CB        24.7710   51.2480   79.1050 C.3   119  THR119      0.1770
     17  OG1       23.8460   52.2800   79.4700 O.3   119  THR119     -0.2211
     18  CG2       25.9030   51.2030   80.1170 C.3   119  THR119      0.0375
     19  N         26.4880   41.1030   77.3590 N.3   131  MET131     -0.1230
     20  CA        26.7310   42.1580   78.3370 C.3   131  MET131      0.1702
     21  C         27.4060   41.7200   79.6310 C.2   131  MET131      0.2592
     22  O         28.0990   42.5170   80.2650 O.2   131  MET131     -0.2718
     23  CB        25.4320   42.9090   78.6440 C.3   131  MET131      0.0401
     24  CG        24.8510   43.6480   77.4380 C.3   131  MET131      0.0596
     25  SD        26.0530   44.6840   76.5490 S.3   131  MET131     -0.1393
     26  CE        26.5250   45.8240   77.8160 C.3   131  MET131      0.0692
     27  N         27.2140   40.4690   80.0370 N.am  132  ASP132     -0.1974
     28  CA        27.8780   40.0050   81.2480 C.3   132  ASP132      0.1709
     29  C         29.3770   39.9790   80.9630 C.2   132  ASP132      0.2293
     30  O         30.1900   40.3880   81.7940 O.2   132  ASP132     -0.2864
     31  CB        27.4080   38.6020   81.6410 C.3   132  ASP132      0.1436
     32  CG        25.9680   38.5790   82.1090 C.2   132  ASP132      0.3671
     33  OD1       25.5740   39.4850   82.8740 O.co2 132  ASP132     -0.2456
     34  OD2       25.2320   37.6440   81.7250 O.co2 132  ASP132     -0.2456
     35  N         30.9350   43.6070   80.7430 N.3   135  ASN135     -0.1240
     36  CA        31.2800   44.1650   82.0420 C.3   135  ASN135      0.1653
     37  C         32.4250   43.4380   82.7330 C.2   135  ASN135      0.2266
     38  O         33.2400   44.0630   83.4100 O.2   135  ASN135     -0.2867
     39  CB        30.0510   44.2010   82.9410 C.3   135  ASN135      0.1155
     40  CG        29.0790   45.2910   82.5410 C.2   135  ASN135      0.2627
     41  OD1       29.3440   46.0830   81.6320 O.2   135  ASN135     -0.2716
     42  ND2       27.9490   45.3330   83.2330 N.am  135  ASN135     -0.0877
     43  N         22.5370   65.6570   85.4610 N.3   169  PRO169     -0.2102
     44  CA        22.8270   65.8220   86.8900 C.3   169  PRO169      0.1504
     45  C         24.3050   65.6150   87.2180 C.2   169  PRO169      0.2576
     46  O         25.1340   65.4540   86.3210 O.2   169  PRO169     -0.2718
     47  CB        21.9570   64.7470   87.5270 C.3   169  PRO169      0.0282
     48  CG        22.0950   63.6310   86.5350 C.3   169  PRO169      0.0208
     49  CD        21.9180   64.3430   85.2060 C.3   169  PRO169      0.0893
     50  N         24.6280   65.6350   88.5100 N.am  170  ASN170     -0.1961
     51  CA        25.9940   65.4000   88.9690 C.3   170  ASN170      0.1819
     52  C         26.0790   63.9230   89.3430 C.2   170  ASN170      0.2621
     53  O         25.2570   63.4300   90.1150 O.2   170  ASN170     -0.2715
     54  CB        26.3130   66.2640   90.1920 C.3   170  ASN170      0.1195
     55  CG        27.6380   65.8990   90.8350 C.2   170  ASN170      0.2630
     56  OD1       28.5550   65.4190   90.1680 O.2   170  ASN170     -0.2716
     57  ND2       27.7510   66.1410   92.1350 N.am  170  ASN170     -0.0877
     58  N         27.0650   63.2200   88.7920 N.am  171  HIS171     -0.1973
     59  CA        27.2370   61.7860   89.0500 C.3   171  HIS171      0.1656
     60  C         28.3600   61.4680   90.0340 C.2   171  HIS171      0.2291
     61  O         28.6320   60.2960   90.3070 O.2   171  HIS171     -0.2864
     62  CB        27.5280   61.0490   87.7390 C.3   171  HIS171      0.0771
     63  CG        26.4320   61.1460   86.7280 C.ar  171  HIS171      0.0820
     64  ND1       25.2680   60.4120   86.8160 N.ar  171  HIS171     -0.2267
     65  CD2       26.3180   61.8990   85.6090 C.ar  171  HIS171      0.1154
     66  CE1       24.4860   60.7090   85.7940 C.ar  171  HIS171      0.1986
     67  NE2       25.1000   61.6090   85.0470 N.ar  171  HIS171     -0.2212
     68  N         31.0000   55.5790   83.9160 N.3   176  ASP176     -0.1225
     69  CA        29.9980   55.5330   82.8600 C.3   176  ASP176      0.1805
     70  C         29.6890   56.8110   82.0950 C.2   176  ASP176      0.2598
     71  O         29.5250   57.8860   82.6720 O.2   176  ASP176     -0.2718
     72  CB        28.6920   54.9740   83.4180 C.3   176  ASP176      0.1424
     73  CG        28.7990   53.5150   83.7830 C.2   176  ASP176      0.3668
     74  OD1       29.0570   52.6960   82.8760 O.co2 176  ASP176     -0.2456
     75  OD2       28.6270   53.1920   84.9740 O.co2 176  ASP176     -0.2456
     76  N         29.5940   56.6640   80.7780 N.am  177  HIS177     -0.1961
     77  CA        29.2660   57.7740   79.8970 C.3   177  HIS177      0.1787
     78  C         27.7690   58.0440   80.0390 C.2   177  HIS177      0.2620
     79  O         26.9400   57.3240   79.4730 O.2   177  HIS177     -0.2715
     80  CB        29.5810   57.4050   78.4470 C.3   177  HIS177      0.0785
     81  CG        29.1840   58.4550   77.4560 C.ar  177  HIS177      0.0821
     82  ND1       30.0120   59.4970   77.1010 N.ar  177  HIS177     -0.2267
     83  CD2       28.0320   58.6370   76.7670 C.ar  177  HIS177      0.1154
     84  CE1       29.3890   60.2760   76.2360 C.ar  177  HIS177      0.1986
     85  NE2       28.1860   59.7780   76.0160 N.ar  177  HIS177     -0.2212
     86  N         27.4280   59.0730   80.8090 N.am  178  GLU178     -0.1977
     87  CA        26.0370   59.4480   81.0300 C.3   178  GLU178      0.1602
     88  C         25.9020   60.9600   80.9370 C.2   178  GLU178      0.2287
     89  O         26.8440   61.6930   81.2340 O.2   178  GLU178     -0.2864
     90  CB        25.5650   59.0140   82.4190 C.3   178  GLU178      0.0415
     91  CG        25.6290   57.5290   82.6980 C.3   178  GLU178      0.1163
     92  CD        25.0300   57.1900   84.0490 C.2   178  GLU178      0.3649
     93  OE1       23.7870   57.1230   84.1490 O.co2 178  GLU178     -0.2457
     94  OE2       25.8000   57.0050   85.0140 O.co2 178  GLU178     -0.2457
@<TRIPOS>BOND
     1    85    84   ar
     2    85    83   ar
     3    84    82   ar
     4    15    14    2
     5    25    24    1
     6    25    26    1
     7    14    13    1
     8    83    81   ar
     9    82    81   ar
    10    19    20    1
    11    24    23    1
    12    81    80    1
    13    12    13    1
    14    13    16    1
    15    20    23    1
    16    20    21    1
    17    80    77    1
    18     3     4    2
    19     3     2    1
    20    16    17    1
    21    16    18    1
    22    79    78    2
    23    21    27   am
    24    21    22    2
    25     2     1    1
    26     2     5    1
    27    77    78    1
    28    77    76    1
    29    27    28    1
    30    78    86   am
    31     5     6    1
    32    35    36    1
    33    76    70   am
    34    86    87    1
    35    88    87    1
    36    88    89    2
    37    29    28    1
    38    29    30    2
    39    87    90    1
    40    28    31    1
    41    41    40    2
    42    31    32    1
    43    34    32   ar
    44     6     7    1
    45    36    37    1
    46    36    39    1
    47    70    71    2
    48    70    69    1
    49    32    33   ar
    50    90    91    1
    51    40    39    1
    52    40    42   am
    53     7     8    1
    54    91    92    1
    55    37    38    2
    56    69    72    1
    57    69    68    1
    58    74    73   ar
    59    72    73    1
    60     8     9    2
    61    73    75   ar
    62    92    93   ar
    63    92    94   ar
    64    10     9    1
    65     9    11    1
    66    67    65   ar
    67    67    66   ar
    68    49    43    1
    69    49    48    1
    70    43    44    1
    71    65    63   ar
    72    66    64   ar
    73    46    45    2
    74    48    47    1
    75    63    64   ar
    76    63    62    1
    77    44    45    1
    78    44    47    1
    79    45    50   am
    80    62    59    1
    81    50    51    1
    82    58    59    1
    83    58    52   am
    84    51    52    1
    85    51    54    1
    86    59    60    1
    87    52    53    2
    88    60    61    2
    89    56    55    2
    90    54    55    1
    91    55    57   am
