@<TRIPOS>MOLECULE
tmp/1ju2B00.pdb
 97 93 0 0 0
SMALL
GASTEIGER

@<TRIPOS>ATOM
      1  N         28.7560   54.2080   76.2490 N.3   118  ASN118     -0.1240
      2  CA        27.3560   54.5330   76.4940 C.3   118  ASN118      0.1653
      3  C         26.6540   53.1660   76.5080 C.2   118  ASN118      0.2266
      4  O         26.7330   52.4250   75.5320 O.2   118  ASN118     -0.2867
      5  CB        26.8520   55.3800   75.3250 C.3   118  ASN118      0.1155
      6  CG        25.4040   55.7770   75.4660 C.2   118  ASN118      0.2627
      7  OD1       24.6030   55.0620   76.0600 O.2   118  ASN118     -0.2716
      8  ND2       25.0620   56.9220   74.8870 N.am  118  ASN118     -0.0877
      9  N         23.7660   52.3470   76.0040 N.3   120  SER120     -0.1202
     10  CA        22.6750   52.2320   75.0380 C.3   120  SER120      0.2020
     11  C         23.1050   52.0160   73.5890 C.2   120  SER120      0.2618
     12  O         22.2590   51.8140   72.7180 O.2   120  SER120     -0.2717
     13  CB        21.7890   53.4810   75.1080 C.3   120  SER120      0.2103
     14  OG        21.2920   53.6780   76.4180 O.3   120  SER120     -0.2182
     15  N         24.4090   52.0440   73.3270 N.am  121  ILE121     -0.1979
     16  CA        24.9010   51.8790   71.9620 C.3   121  ILE121      0.1595
     17  C         25.1190   50.4470   71.4900 C.2   121  ILE121      0.2287
     18  O         25.3390   50.2090   70.3020 O.2   121  ILE121     -0.2864
     19  CB        26.2190   52.6670   71.7370 C.3   121  ILE121      0.0276
     20  CG1       27.2890   52.2460   72.7500 C.3   121  ILE121      0.0022
     21  CG2       25.9480   54.1510   71.8530 C.3   121  ILE121      0.0022
     22  CD1       27.9120   50.8840   72.4990 C.3   121  ILE121      0.0001
     23  N         22.1140   48.4980   68.8040 N.3   124  ALA124     -0.1245
     24  CA        22.0600   48.7550   67.3640 C.3   124  ALA124      0.1562
     25  C         23.4250   48.7870   66.6750 C.2   124  ALA124      0.2260
     26  O         23.5650   49.3710   65.6010 O.2   124  ALA124     -0.2867
     27  CB        21.3200   50.0650   67.1070 C.3   124  ALA124      0.0290
     28  N         29.5940   56.6640   80.7780 N.3   177  HIS177     -0.1226
     29  CA        29.2660   57.7740   79.8970 C.3   177  HIS177      0.1752
     30  C         27.7690   58.0440   80.0390 C.2   177  HIS177      0.2596
     31  O         26.9400   57.3240   79.4730 O.2   177  HIS177     -0.2718
     32  CB        29.5810   57.4050   78.4470 C.3   177  HIS177      0.0759
     33  CG        29.1840   58.4550   77.4560 C.ar  177  HIS177      0.0818
     34  ND1       30.0120   59.4970   77.1010 N.ar  177  HIS177     -0.2268
     35  CD2       28.0320   58.6370   76.7670 C.ar  177  HIS177      0.1154
     36  CE1       29.3890   60.2760   76.2360 C.ar  177  HIS177      0.1986
     37  NE2       28.1860   59.7780   76.0160 N.ar  177  HIS177     -0.2212
     38  N         27.4280   59.0730   80.8090 N.am  178  GLU178     -0.1965
     39  CA        26.0370   59.4480   81.0300 C.3   178  GLU178      0.1733
     40  C         25.9020   60.9600   80.9370 C.2   178  GLU178      0.2616
     41  O         26.8440   61.6930   81.2340 O.2   178  GLU178     -0.2715
     42  CB        25.5650   59.0140   82.4190 C.3   178  GLU178      0.0429
     43  CG        25.6290   57.5290   82.6980 C.3   178  GLU178      0.1163
     44  CD        25.0300   57.1900   84.0490 C.2   178  GLU178      0.3649
     45  OE1       23.7870   57.1230   84.1490 O.co2 178  GLU178     -0.2457
     46  OE2       25.8000   57.0050   85.0140 O.co2 178  GLU178     -0.2457
     47  N         24.7280   61.4190   80.5210 N.am  179  GLU179     -0.1977
     48  CA        24.4680   62.8490   80.4200 C.3   179  GLU179      0.1602
     49  C         24.6610   63.4760   81.7970 C.2   179  GLU179      0.2287
     50  O         24.1760   62.9500   82.8010 O.2   179  GLU179     -0.2864
     51  CB        23.0340   63.0920   79.9450 C.3   179  GLU179      0.0415
     52  CG        22.6110   64.5550   79.9780 C.3   179  GLU179      0.1163
     53  CD        21.1720   64.7550   79.5410 C.2   179  GLU179      0.3649
     54  OE1       20.4810   63.7460   79.2870 O.co2 179  GLU179     -0.2457
     55  OE2       20.7310   65.9220   79.4550 O.co2 179  GLU179     -0.2457
     56  N         28.9650   66.0010   80.0300 N.3   321  ILE321     -0.1231
     57  CA        28.3420   65.2760   78.9340 C.3   321  ILE321      0.1692
     58  C         26.9310   65.6950   78.5470 C.2   321  ILE321      0.2593
     59  O         26.0230   65.6980   79.3720 O.2   321  ILE321     -0.2718
     60  CB        28.3120   63.7520   79.2570 C.3   321  ILE321      0.0266
     61  CG1       29.7340   63.2600   79.5360 C.3   321  ILE321      0.0019
     62  CG2       27.6580   62.9660   78.1230 C.3   321  ILE321      0.0020
     63  CD1       30.7090   63.4750   78.3930 C.3   321  ILE321      0.0001
     64  N         26.7580   66.0510   77.2800 N.am  322  SER322     -0.1938
     65  CA        25.4430   66.3880   76.7560 C.3   322  SER322      0.2055
     66  C         25.1610   65.3040   75.7150 C.2   322  SER322      0.2643
     67  O         26.0610   64.5460   75.3460 O.2   322  SER322     -0.2714
     68  CB        25.4480   67.7810   76.1170 C.3   322  SER322      0.2130
     69  OG        25.6660   68.7760   77.1060 O.3   322  SER322     -0.2179
     70  N         23.9240   65.2110   75.2480 N.am  323  ASN323     -0.1957
     71  CA        23.5690   64.1930   74.2630 C.3   323  ASN323      0.1819
     72  C         24.2590   64.3900   72.9140 C.2   323  ASN323      0.2621
     73  O         24.6480   63.4210   72.2590 O.2   323  ASN323     -0.2715
     74  CB        22.0500   64.1730   74.0520 C.3   323  ASN323      0.1195
     75  CG        21.3050   63.5190   75.2020 C.2   323  ASN323      0.2630
     76  OD1       20.1590   63.8630   75.4860 O.2   323  ASN323     -0.2716
     77  ND2       21.9470   62.5600   75.8590 N.am  323  ASN323     -0.0877
     78  N         24.4320   65.6430   72.5080 N.am  324  ASP324     -0.1971
     79  CA        25.0330   65.9380   71.2100 C.3   324  ASP324      0.1709
     80  C         26.4970   66.3740   71.2140 C.2   324  ASP324      0.2293
     81  O         27.1140   66.4820   70.1540 O.2   324  ASP324     -0.2864
     82  CB        24.1990   67.0000   70.4880 C.3   324  ASP324      0.1436
     83  CG        22.7300   66.6270   70.3940 C.2   324  ASP324      0.3671
     84  OD1       22.4300   65.4580   70.0710 O.co2 324  ASP324     -0.2456
     85  OD2       21.8760   67.5070   70.6340 O.co2 324  ASP324     -0.2456
     86  N         30.3120   66.5230   73.9400 N.3   326  TYR326     -0.1241
     87  CA        30.9840   66.1700   75.1880 C.3   326  TYR326      0.1605
     88  C         32.0720   67.1970   75.4540 C.2   326  TYR326      0.2264
     89  O         32.8360   67.5380   74.5550 O.2   326  TYR326     -0.2867
     90  CB        31.5960   64.7800   75.0510 C.3   326  TYR326      0.0534
     91  CG        30.7310   63.8140   74.2630 C.ar  326  TYR326     -0.0201
     92  CD1       31.2660   63.0860   73.2040 C.ar  326  TYR326     -0.0009
     93  CD2       29.3830   63.6290   74.5760 C.ar  326  TYR326     -0.0009
     94  CE1       30.4900   62.1990   72.4740 C.ar  326  TYR326      0.0417
     95  CE2       28.5900   62.7410   73.8450 C.ar  326  TYR326      0.0417
     96  CZ        29.1590   62.0300   72.7960 C.ar  326  TYR326      0.1957
     97  OH        28.4030   61.1410   72.0700 O.3   326  TYR326     -0.2866
@<TRIPOS>BOND
     1    26    25    2
     2    25    24    1
     3    27    24    1
     4    24    23    1
     5    84    83   ar
     6    81    80    2
     7    18    17    2
     8    83    82    1
     9    83    85   ar
    10    82    79    1
    11    79    80    1
    12    79    78    1
    13    17    16    1
    14    19    21    1
    15    19    16    1
    16    19    20    1
    17    16    15    1
    18    97    96    1
    19    73    72    2
    20    94    96   ar
    21    94    92   ar
    22    22    20    1
    23    78    72   am
    24    12    11    2
    25    96    95   ar
    26    72    71    1
    27    92    91   ar
    28    15    11   am
    29    11    10    1
    30    95    93   ar
    31    86    87    1
    32    74    71    1
    33    74    75    1
    34    91    93   ar
    35    91    90    1
    36    71    70    1
    37    89    88    2
    38     8     6   am
    39    10    13    1
    40    10     9    1
    41    90    87    1
    42    13    14    1
    43    87    88    1
    44    75    76    2
    45    75    77   am
    46    70    66   am
    47     5     6    1
    48     5     2    1
    49    67    66    2
    50     6     7    2
    51     4     3    2
    52    66    65    1
    53    37    36   ar
    54    37    35   ar
    55    68    65    1
    56    68    69    1
    57    36    34   ar
    58     1     2    1
    59     2     3    1
    60    65    64    1
    61    35    33   ar
    62    34    33   ar
    63    64    58   am
    64    33    32    1
    65    62    60    1
    66    63    61    1
    67    32    29    1
    68    58    57    1
    69    58    59    2
    70    57    60    1
    71    57    56    1
    72    60    61    1
    73    54    53   ar
    74    55    53   ar
    75    31    30    2
    76    53    52    1
    77    29    30    1
    78    29    28    1
    79    51    52    1
    80    51    48    1
    81    30    38   am
    82    48    47    1
    83    48    49    1
    84    47    40   am
    85    38    39    1
    86    40    39    1
    87    40    41    2
    88    39    42    1
    89    49    50    2
    90    42    43    1
    91    43    44    1
    92    44    45   ar
    93    44    46   ar
