@<TRIPOS>MOLECULE
tmp/1ju4A00.pdb
 122 125 0 0 0
SMALL
GASTEIGER

@<TRIPOS>ATOM
      1  N         -1.2530   67.8640   -5.4220 N.3    40  TYR40      -0.1241
      2  CA        -1.0910   68.7100   -6.6160 C.3    40  TYR40       0.1605
      3  C         -2.1660   68.4450   -7.6620 C.2    40  TYR40       0.2264
      4  O         -1.8790   68.6010   -8.8540 O.2    40  TYR40      -0.2867
      5  CB         0.3030   68.4460   -7.1790 C.3    40  TYR40       0.0534
      6  CG         1.4340   68.4950   -6.1750 C.ar   40  TYR40      -0.0201
      7  CD1        1.6710   69.6370   -5.4190 C.ar   40  TYR40      -0.0009
      8  CD2        2.2860   67.4320   -5.9510 C.ar   40  TYR40      -0.0009
      9  CE1        2.6890   69.7110   -4.4930 C.ar   40  TYR40       0.0417
     10  CE2        3.3210   67.4800   -5.0340 C.ar   40  TYR40       0.0417
     11  CZ         3.5180   68.6290   -4.3020 C.ar   40  TYR40       0.1957
     12  OH         4.5470   68.6930   -3.3980 O.3    40  TYR40      -0.2866
     13  N          1.3580   67.6410    6.0840 N.3    83  HIS83      -0.1241
     14  CA         1.7620   66.4580    6.8010 C.3    83  HIS83       0.1621
     15  C          0.8860   66.0330    7.9680 C.2    83  HIS83       0.2264
     16  O          0.8030   64.8310    8.2300 O.2    83  HIS83      -0.2867
     17  CB         3.1900   66.5900    7.4170 C.3    83  HIS83       0.0745
     18  CG         4.1470   66.9910    6.3420 C.ar   83  HIS83       0.0817
     19  ND1        4.9350   68.1290    6.4430 N.ar   83  HIS83      -0.2268
     20  CD2        4.3970   66.4390    5.1340 C.ar   83  HIS83       0.1154
     21  CE1        5.5710   68.1430    5.2970 C.ar   83  HIS83       0.1986
     22  NE2        5.3460   67.1620    4.4820 N.ar   83  HIS83      -0.2212
     23  N          5.9930   59.9310   -5.9130 N.3   112  VAL112     -0.1231
     24  CA         7.2360   60.6660   -5.7490 C.3   112  VAL112      0.1692
     25  C          7.0800   61.9110   -4.8860 C.2   112  VAL112      0.2593
     26  O          6.0580   62.6090   -4.9240 O.2   112  VAL112     -0.2718
     27  CB         7.7950   60.9670   -7.1790 C.3   112  VAL112      0.0266
     28  CG1        6.8630   61.8810   -7.9450 C.3   112  VAL112      0.0020
     29  CG2        9.2070   61.5430   -7.1040 C.3   112  VAL112      0.0020
     30  N          8.1010   62.1470   -4.0880 N.am  113  SER113     -0.1938
     31  CA         8.2760   63.2640   -3.1440 C.3   113  SER113      0.2055
     32  C          7.1230   63.3470   -2.1610 C.2   113  SER113      0.2643
     33  O          7.0100   62.4520   -1.3130 O.2   113  SER113     -0.2714
     34  CB         8.5180   64.5490   -3.9280 C.3   113  SER113      0.2130
     35  OG         9.5930   64.3800   -4.8370 O.3   113  SER113     -0.2179
     36  N          6.2550   64.3700   -2.1720 N.am  114  TYR114     -0.1973
     37  CA         5.1640   64.3470   -1.1710 C.3   114  TYR114      0.1639
     38  C          4.3020   63.0960   -1.3560 C.2   114  TYR114      0.2290
     39  O          3.7800   62.5370   -0.3910 O.2   114  TYR114     -0.2864
     40  CB         4.3090   65.5950   -1.2900 C.3   114  TYR114      0.0560
     41  CG         3.3850   65.9610   -0.1600 C.ar  114  TYR114     -0.0198
     42  CD1        2.1950   65.3100    0.0980 C.ar  114  TYR114     -0.0009
     43  CD2        3.7190   67.0230    0.6630 C.ar  114  TYR114     -0.0009
     44  CE1        1.3870   65.7160    1.1590 C.ar  114  TYR114      0.0417
     45  CE2        2.9180   67.4300    1.7120 C.ar  114  TYR114      0.0417
     46  CZ         1.7340   66.7710    1.9700 C.ar  114  TYR114      0.1957
     47  OH         0.9310   67.1810    3.0280 O.3   114  TYR114     -0.2866
     48  N         12.5150   67.4130    3.8300 N.3   146  PRO146     -0.2102
     49  CA        13.3050   68.4740    3.1890 C.3   146  PRO146      0.1504
     50  C         13.4530   69.7700    3.9480 C.2   146  PRO146      0.2575
     51  O         14.0350   70.7250    3.4150 O.2   146  PRO146     -0.2718
     52  CB        12.4390   68.7350    1.9390 C.3   146  PRO146      0.0282
     53  CG        11.0360   68.6120    2.4670 C.3   146  PRO146      0.0208
     54  CD        11.0750   67.6120    3.5870 C.3   146  PRO146      0.0893
     55  N         12.9570   69.8960    5.1850 N.am  147  TRP147     -0.1977
     56  CA        12.8560   71.2700    5.7110 C.3   147  TRP147      0.1640
     57  C         14.0420   71.7520    6.5030 C.2   147  TRP147      0.2290
     58  O         14.3530   72.9520    6.3650 O.2   147  TRP147     -0.2864
     59  CB        11.6110   71.4470    6.5940 C.3   147  TRP147      0.0576
     60  CG        10.4190   71.0250    5.8140 C.ar  147  TRP147      0.0006
     61  CD1        9.5640   70.0980    6.3460 C.ar  147  TRP147      0.0946
     62  CD2        9.9560   71.4150    4.5110 C.ar  147  TRP147      0.0152
     63  NE1        8.6490   69.9540    5.4040 N.ar  147  TRP147     -0.2442
     64  CE2        8.7690   70.6890    4.2560 C.ar  147  TRP147      0.0810
     65  CE3       10.3860   72.2840    3.5020 C.ar  147  TRP147      0.0012
     66  CZ2        8.0280   70.8080    3.0810 C.ar  147  TRP147      0.0191
     67  CZ3        9.6460   72.4060    2.3250 C.ar  147  TRP147      0.0001
     68  CH2        8.4670   71.6730    2.1020 C.ar  147  TRP147      0.0015
     69  N          8.7650   75.7300   -2.1400 N.3   162  TRP162     -0.1241
     70  CA         7.5990   74.8520   -2.0840 C.3   162  TRP162      0.1605
     71  C          6.3520   75.6090   -1.6300 C.2   162  TRP162      0.2264
     72  O          5.2700   75.3740   -2.1840 O.2   162  TRP162     -0.2867
     73  CB         7.8280   73.6650   -1.1550 C.3   162  TRP162      0.0550
     74  CG         6.7680   72.5960   -1.2170 C.ar  162  TRP162      0.0003
     75  CD1        6.5550   71.6660   -2.1870 C.ar  162  TRP162      0.0946
     76  CD2        5.7550   72.3490   -0.2280 C.ar  162  TRP162      0.0152
     77  NE1        5.4850   70.8620   -1.8760 N.ar  162  TRP162     -0.2442
     78  CE2        4.9790   71.2640   -0.6800 C.ar  162  TRP162      0.0810
     79  CE3        5.4490   72.9650    0.9980 C.ar  162  TRP162      0.0012
     80  CZ2        3.8930   70.7540    0.0410 C.ar  162  TRP162      0.0191
     81  CZ3        4.3750   72.4570    1.7100 C.ar  162  TRP162      0.0001
     82  CH2        3.6310   71.3750    1.2220 C.ar  162  TRP162      0.0015
     83  N         15.8850   64.9670   -1.1900 N.3   257  PHE257     -0.1241
     84  CA        15.5330   63.9410   -0.2070 C.3   257  PHE257      0.1605
     85  C         16.5230   62.7990   -0.0510 C.2   257  PHE257      0.2264
     86  O         16.2510   61.9030    0.7690 O.2   257  PHE257     -0.2867
     87  CB        14.1780   63.3830   -0.6360 C.3   257  PHE257      0.0534
     88  CG        13.0200   64.3600   -0.6190 C.ar  257  PHE257     -0.0203
     89  CD1       12.7970   65.1670   -1.7130 C.ar  257  PHE257     -0.0042
     90  CD2       12.1860   64.4540    0.4730 C.ar  257  PHE257     -0.0042
     91  CE1       11.7530   66.0580   -1.7440 C.ar  257  PHE257     -0.0003
     92  CE2       11.1290   65.3480    0.4480 C.ar  257  PHE257     -0.0003
     93  CZ        10.9070   66.1460   -0.6470 C.ar  257  PHE257     -0.0000
     94  N         15.8460   67.1860   -8.2160 N.3   283  HIS283     -0.1241
     95  CA        14.3940   67.0990   -8.1090 C.3   283  HIS283      0.1621
     96  C         13.6980   67.5520   -9.3780 C.2   283  HIS283      0.2264
     97  O         12.7400   66.9080   -9.8380 O.2   283  HIS283     -0.2867
     98  CB        13.9920   67.9200   -6.8940 C.3   283  HIS283      0.0745
     99  CG        12.5750   68.3740   -6.8740 C.ar  283  HIS283      0.0817
    100  ND1       11.5150   67.5540   -6.5370 N.ar  283  HIS283     -0.2268
    101  CD2       12.0640   69.5930   -7.1450 C.ar  283  HIS283      0.1154
    102  CE1       10.4070   68.2700   -6.6120 C.ar  283  HIS283      0.1986
    103  NE2       10.7030   69.5000   -6.9830 N.ar  283  HIS283     -0.2212
    104  N         16.6120   72.4390   -4.3540 N.3   403  LEU403     -0.1231
    105  CA        15.3250   71.9960   -4.8840 C.3   403  LEU403      0.1693
    106  C         14.6670   72.9850   -5.8380 C.2   403  LEU403      0.2592
    107  O         14.2240   72.5530   -6.9100 O.2   403  LEU403     -0.2718
    108  CB        14.3730   71.7340   -3.7000 C.3   403  LEU403      0.0284
    109  CG        14.6090   70.4320   -2.9510 C.3   403  LEU403      0.0019
    110  CD1       13.8610   70.4250   -1.6260 C.3   403  LEU403      0.0001
    111  CD2       14.2050   69.2470   -3.8000 C.3   403  LEU403      0.0001
    112  N         14.5780   74.2560   -5.4610 N.am  404  PHE404     -0.1976
    113  CA        13.8410   75.2560   -6.2370 C.3   404  PHE404      0.1639
    114  C         14.7120   76.4000   -6.7280 C.2   404  PHE404      0.2290
    115  O         14.4620   76.9400   -7.8170 O.2   404  PHE404     -0.2864
    116  CB        12.6670   75.8330   -5.4050 C.3   404  PHE404      0.0560
    117  CG        11.7050   74.7060   -5.0750 C.ar  404  PHE404     -0.0200
    118  CD1       10.9490   74.1220   -6.0760 C.ar  404  PHE404     -0.0042
    119  CD2       11.6080   74.2630   -3.7810 C.ar  404  PHE404     -0.0042
    120  CE1       10.0910   73.0790   -5.7760 C.ar  404  PHE404     -0.0003
    121  CE2       10.7400   73.2430   -3.4830 C.ar  404  PHE404     -0.0003
    122  CZ         9.9680   72.6650   -4.4590 C.ar  404  PHE404     -0.0000
@<TRIPOS>BOND
     1    97    96    2
     2    96    95    1
     3     4     3    2
     4    94    95    1
     5    95    98    1
     6    28    27    1
     7   115   114    2
     8     3     2    1
     9    27    29    1
    10    27    24    1
    11     5     2    1
    12     5     6    1
    13   101   103   ar
    14   101    99   ar
    15   103   102   ar
    16   107   106    2
    17    98    99    1
    18    99   100   ar
    19   114   113    1
    20     2     1    1
    21   102   100   ar
    22   113   112    1
    23   113   116    1
    24     6     8   ar
    25     6     7   ar
    26   118   120   ar
    27   118   117   ar
    28     8    10   ar
    29    23    24    1
    30   106   112   am
    31   106   105    1
    32   120   122   ar
    33    24    25    1
    34     7     9   ar
    35   116   117    1
    36   117   119   ar
    37    10    11   ar
    38    26    25    2
    39    25    30   am
    40   105   104    1
    41   105   108    1
    42    35    34    1
    43     9    11   ar
    44   122   121   ar
    45    11    12    1
    46    30    31    1
    47    34    31    1
    48   111   109    1
    49   119   121   ar
    50   108   109    1
    51    31    32    1
    52   109   110    1
    53    75    77   ar
    54    75    74   ar
    55    72    71    2
    56    36    32   am
    57    36    37    1
    58    32    33    2
    59    69    70    1
    60    70    71    1
    61    70    73    1
    62    77    78   ar
    63    91    89   ar
    64    91    93   ar
    65    89    88   ar
    66    38    37    1
    67    38    39    2
    68    40    37    1
    69    40    41    1
    70    74    73    1
    71    74    76   ar
    72    83    84    1
    73    78    76   ar
    74    78    80   ar
    75    93    92   ar
    76    87    88    1
    77    87    84    1
    78    88    90   ar
    79    76    79   ar
    80    84    85    1
    81    41    42   ar
    82    41    43   ar
    83    85    86    2
    84    80    82   ar
    85    42    44   ar
    86    92    90   ar
    87    43    45   ar
    88    79    81   ar
    89    44    46   ar
    90    82    81   ar
    91    45    46   ar
    92    52    53    1
    93    52    49    1
    94    46    47    1
    95    68    67   ar
    96    68    66   ar
    97    67    65   ar
    98    53    54    1
    99    66    64   ar
   100    49    48    1
   101    49    50    1
   102    51    50    2
   103    65    62   ar
   104    54    48    1
   105    50    55   am
   106    64    62   ar
   107    64    63   ar
   108    22    20   ar
   109    22    21   ar
   110    62    60   ar
   111    20    18   ar
   112    55    56    1
   113    21    19   ar
   114    63    61   ar
   115    56    57    1
   116    56    59    1
   117    60    61   ar
   118    60    59    1
   119    13    14    1
   120    18    19   ar
   121    18    17    1
   122    58    57    2
   123    14    17    1
   124    14    15    1
   125    15    16    2
