@<TRIPOS>MOLECULE
tmp/1ju9A00.pdb
 180 172 0 0 0
SMALL
GASTEIGER

@<TRIPOS>ATOM
      1  N         -2.9800    5.5220    9.7310 N.3    46  CYS46      -0.1221
      2  CA        -2.9810    4.0580    9.9070 C.3    46  CYS46       0.1808
      3  C         -3.9140    3.5930   11.0190 C.2    46  CYS46       0.2601
      4  O         -4.1320    4.3100   12.0010 O.2    46  CYS46      -0.2717
      5  CB        -1.5500    3.5500   10.1550 C.3    46  CYS46       0.0970
      6  SG        -1.4550    1.8220   10.6390 S.3    46  CYS46      -0.0800
      7  N         -4.4570    2.3830   10.8900 N.am   47  ARG47      -0.1979
      8  CA        -5.3760    1.8790   11.9100 C.3    47  ARG47       0.1597
      9  C         -4.7300    1.9840   13.2610 C.2    47  ARG47       0.2287
     10  O         -5.3900    2.3200   14.2350 O.2    47  ARG47      -0.2864
     11  CB        -5.7670    0.4100   11.6730 C.3    47  ARG47       0.0334
     12  CG        -6.9210    0.2250   10.6950 C.3    47  ARG47       0.0492
     13  CD        -8.3270    0.3800   11.2900 C.3    47  ARG47       0.2205
     14  NE        -9.3350    0.2270   10.2330 N.pl3  47  ARG47      -0.0865
     15  CZ       -10.6200    0.5430   10.3600 C.cat  47  ARG47       0.5346
     16  NH1      -11.0850    1.0350   11.5090 N.pl3  47  ARG47       0.1354
     17  NH2      -11.4420    0.3690    9.3310 N.pl3  47  ARG47       0.1354
     18  N         -5.9630  -12.9030    3.5090 N.3   198  PHE198     -0.1227
     19  CA        -7.2080  -12.6340    4.1990 C.3   198  PHE198      0.1736
     20  C         -7.2070  -11.1570    4.5660 C.2   198  PHE198      0.2596
     21  O         -6.3790  -10.7120    5.3720 O.2   198  PHE198     -0.2718
     22  CB        -7.3610  -13.5010    5.4790 C.3   198  PHE198      0.0547
     23  CG        -7.6170  -14.9870    5.2170 C.ar  198  PHE198     -0.0202
     24  CD1       -6.6050  -15.8180    4.7610 C.ar  198  PHE198     -0.0042
     25  CD2       -8.8740  -15.5390    5.4370 C.ar  198  PHE198     -0.0042
     26  CE1       -6.8360  -17.1790    4.5080 C.ar  198  PHE198     -0.0003
     27  CE2       -9.1190  -16.9090    5.1990 C.ar  198  PHE198     -0.0003
     28  CZ        -8.0950  -17.7240    4.7410 C.ar  198  PHE198     -0.0000
     29  N         -8.1240  -10.3930    3.9810 N.am  199  GLY199     -0.1942
     30  CA        -8.1900   -8.9630    4.2390 C.3   199  GLY199      0.2014
     31  C         -7.5800   -8.2100    3.0850 C.2   199  GLY199      0.2639
     32  O         -6.3530   -8.2750    2.8510 O.2   199  GLY199     -0.2714
     33  N         -8.4430   -7.4890    2.3680 N.am  200  LEU200     -0.1963
     34  CA        -8.0540   -6.7510    1.1730 C.3   200  LEU200      0.1728
     35  C         -8.0040   -5.1900    1.3150 C.2   200  LEU200      0.2617
     36  O         -8.2040   -4.4740    0.3330 O.2   200  LEU200     -0.2715
     37  CB        -8.9190   -7.1580   -0.0320 C.3   200  LEU200      0.0311
     38  CG        -8.7830   -8.6500   -0.3760 C.3   200  LEU200      0.0022
     39  CD1       -9.7990   -9.1020   -1.4560 C.3   200  LEU200      0.0001
     40  CD2       -7.3500   -8.9410   -0.8110 C.3   200  LEU200      0.0001
     41  N         -7.7670   -4.7020    2.5350 N.am  201  GLY201     -0.1940
     42  CA        -7.4620   -3.3000    2.7550 C.3   201  GLY201      0.2014
     43  C         -6.0590   -3.0410    2.2090 C.2   201  GLY201      0.2639
     44  O         -5.5290   -3.8310    1.4290 O.2   201  GLY201     -0.2714
     45  N         -5.4490   -1.9470    2.6670 N.am  202  GLY202     -0.1939
     46  CA        -4.2070   -1.4040    2.1390 C.3   202  GLY202      0.2014
     47  C         -3.0780   -2.3830    2.3390 C.2   202  GLY202      0.2639
     48  O         -2.2840   -2.6480    1.4370 O.2   202  GLY202     -0.2714
     49  N         -3.0220   -2.9270    3.5430 N.am  203  VAL203     -0.1963
     50  CA        -2.0030   -3.8820    3.9000 C.3   203  VAL203      0.1727
     51  C         -2.1930   -5.1850    3.1040 C.2   203  VAL203      0.2616
     52  O         -1.2460   -5.7080    2.5650 O.2   203  VAL203     -0.2715
     53  CB        -2.0120   -4.2100    5.4040 C.3   203  VAL203      0.0290
     54  CG1       -0.9550   -5.2470    5.6900 C.3   203  VAL203      0.0023
     55  CG2       -1.7840   -2.9310    6.2790 C.3   203  VAL203      0.0023
     56  N         -3.4070   -5.7160    3.0410 N.am  204  GLY204     -0.1955
     57  CA        -3.6130   -6.9470    2.2610 C.3   204  GLY204      0.1869
     58  C         -3.2040   -6.7290    0.7990 C.2   204  GLY204      0.2309
     59  O         -2.6190   -7.6200    0.1710 O.2   204  GLY204     -0.2863
     60  N         -9.1630  -12.8910   -0.1960 N.3   222  VAL222     -0.1231
     61  CA       -10.2810  -13.2970    0.6420 C.3   222  VAL222      0.1692
     62  C        -10.7700  -12.1000    1.4310 C.2   222  VAL222      0.2592
     63  O         -9.9890  -11.4250    2.1040 O.2   222  VAL222     -0.2718
     64  CB        -9.9020  -14.4530    1.6330 C.3   222  VAL222      0.0266
     65  CG1      -11.1170  -14.8810    2.4410 C.3   222  VAL222      0.0020
     66  CG2       -9.2890  -15.6160    0.9060 C.3   222  VAL222      0.0020
     67  N        -12.0670  -11.8360    1.3410 N.am  223  ASP223     -0.1960
     68  CA       -12.6580  -10.7010    2.0090 C.3   223  ASP223      0.1840
     69  C        -14.1630  -10.7750    1.8740 C.2   223  ASP223      0.2622
     70  O        -14.6660  -11.1360    0.8280 O.2   223  ASP223     -0.2715
     71  CB       -12.1650   -9.4350    1.3300 C.3   223  ASP223      0.1450
     72  CG       -12.2990   -8.2060    2.2080 C.2   223  ASP223      0.3671
     73  OD1      -13.4140   -7.9380    2.7010 O.co2 223  ASP223     -0.2456
     74  OD2      -11.3230   -7.4840    2.4690 O.co2 223  ASP223     -0.2456
     75  N        -14.8800  -10.4180    2.9290 N.am  224  ILE224     -0.1963
     76  CA       -16.3520  -10.4600    2.9170 C.3   224  ILE224      0.1727
     77  C        -16.9610   -9.2680    2.1650 C.2   224  ILE224      0.2616
     78  O        -18.1550   -9.2630    1.8650 O.2   224  ILE224     -0.2715
     79  CB       -16.8900  -10.5270    4.3620 C.3   224  ILE224      0.0290
     80  CG1      -16.3310   -9.3730    5.2040 C.3   224  ILE224      0.0022
     81  CG2      -16.5210  -11.8520    5.0110 C.3   224  ILE224      0.0023
     82  CD1      -16.6580   -9.4770    6.7220 C.3   224  ILE224      0.0001
     83  N        -16.1260   -8.2810    1.8510 N.am  225  ASN225     -0.1972
     84  CA       -16.5440   -7.0720    1.1350 C.3   225  ASN225      0.1688
     85  C        -16.0870   -7.1440   -0.3190 C.2   225  ASN225      0.2292
     86  O        -14.9350   -6.8320   -0.6330 O.2   225  ASN225     -0.2864
     87  CB       -15.9530   -5.8390    1.8210 C.3   225  ASN225      0.1181
     88  CG       -16.4900   -4.5090    1.2600 C.2   225  ASN225      0.2629
     89  OD1      -17.1610   -4.4640    0.2210 O.2   225  ASN225     -0.2716
     90  ND2      -16.1800   -3.4280    1.9530 N.am  225  ASN225     -0.0877
     91  N        -13.9810   -4.7960   -2.5140 N.3   228  LYS228     -0.1245
     92  CA       -12.5180   -4.7450   -2.4420 C.3   228  LYS228      0.1561
     93  C        -11.8470   -5.5810   -3.5210 C.2   228  LYS228      0.2260
     94  O        -10.6180   -5.5220   -3.7010 O.2   228  LYS228     -0.2867
     95  CB       -12.0150   -5.2290   -1.0690 C.3   228  LYS228      0.0271
     96  CG       -12.4110   -4.3510    0.0950 C.3   228  LYS228      0.0035
     97  CD       -11.8290   -2.9650   -0.0400 C.3   228  LYS228      0.0206
     98  CE       -12.1120   -2.1430    1.2100 C.3   228  LYS228      0.1093
     99  NZ       -11.4380   -2.6990    2.4170 N.3   228  LYS228     -0.1314
    100  N        -16.1580  -15.1930    1.6630 N.3   243  PRO243     -0.2116
    101  CA       -16.6570  -16.2760    2.5180 C.3   243  PRO243      0.1372
    102  C        -18.1700  -16.3100    2.6940 C.2   243  PRO243      0.2244
    103  O        -18.6860  -17.3660    3.0110 O.2   243  PRO243     -0.2868
    104  CB       -15.9960  -16.0080    3.8720 C.3   243  PRO243      0.0268
    105  CG       -14.7540  -15.2760    3.5560 C.3   243  PRO243      0.0207
    106  CD       -15.0610  -14.4510    2.3080 C.3   243  PRO243      0.0892
    107  N         -4.1860  -10.2740    7.5180 N.3   268  VAL268     -0.1231
    108  CA        -3.7630   -8.9080    7.7480 C.3   268  VAL268      0.1692
    109  C         -4.7700   -8.1630    8.6220 C.2   268  VAL268      0.2591
    110  O         -4.4880   -7.0490    9.1040 O.2   268  VAL268     -0.2718
    111  CB        -3.5630   -8.1770    6.4260 C.3   268  VAL268      0.0266
    112  CG1       -2.6060   -8.9940    5.5280 C.3   268  VAL268      0.0020
    113  CG2       -4.9040   -7.9560    5.7650 C.3   268  VAL268      0.0020
    114  N         -5.9120   -8.8120    8.8430 N.am  269  ILE269     -0.1980
    115  CA        -7.0530   -8.2520    9.5490 C.3   269  ILE269      0.1595
    116  C         -6.8880   -8.1150   11.0570 C.2   269  ILE269      0.2287
    117  O         -7.3520   -7.1460   11.6290 O.2   269  ILE269     -0.2864
    118  CB        -8.3050   -9.1260    9.2780 C.3   269  ILE269      0.0276
    119  CG1       -8.3930   -9.5400    7.8060 C.3   269  ILE269      0.0022
    120  CG2       -9.5630   -8.4010    9.7190 C.3   269  ILE269      0.0022
    121  CD1       -9.4850  -10.5610    7.5210 C.3   269  ILE269      0.0001
    122  N         -8.0090  -10.5540   13.1800 N.3   271  ARG271     -0.1245
    123  CA        -9.1320  -11.2110   13.8130 C.3   271  ARG271      0.1563
    124  C         -8.6590  -12.5430   14.3270 C.2   271  ARG271      0.2260
    125  O         -7.9890  -13.2760   13.6140 O.2   271  ARG271     -0.2867
    126  CB       -10.2670  -11.4440   12.8220 C.3   271  ARG271      0.0307
    127  CG       -11.1330  -10.2330   12.5180 C.3   271  ARG271      0.0489
    128  CD       -12.2800  -10.5510   11.5720 C.3   271  ARG271      0.2205
    129  NE       -13.3140  -11.3310   12.2440 N.pl3 271  ARG271     -0.0865
    130  CZ       -14.2230  -10.8070   13.0650 C.cat 271  ARG271      0.5346
    131  NH1      -14.2330   -9.4980   13.3080 N.pl3 271  ARG271      0.1354
    132  NH2      -15.1260  -11.5880   13.6380 N.pl3 271  ARG271      0.1354
    133  N        -10.3690  -15.2890   14.8300 N.3   273  ASP273     -0.1225
    134  CA       -10.9130  -16.3960   14.0690 C.3   273  ASP273      0.1805
    135  C        -10.2700  -16.5630   12.6960 C.2   273  ASP273      0.2598
    136  O         -9.9640  -17.6780   12.2850 O.2   273  ASP273     -0.2718
    137  CB       -12.4540  -16.3500   13.9860 C.3   273  ASP273      0.1424
    138  CG       -13.0040  -15.0290   13.4210 C.2   273  ASP273      0.3668
    139  OD1      -12.3520  -13.9530   13.5160 O.co2 273  ASP273     -0.2456
    140  OD2      -14.1190  -14.9760   12.8790 O.co2 273  ASP273     -0.2456
    141  N        -10.0640  -15.4620   11.9810 N.am  274  THR274     -0.1953
    142  CA        -9.4760  -15.5830   10.6550 C.3   274  THR274      0.1897
    143  C         -8.0000  -16.0000   10.7520 C.2   274  THR274      0.2313
    144  O         -7.4930  -16.6660    9.8530 O.2   274  THR274     -0.2863
    145  CB        -9.6880  -14.3250    9.7700 C.3   274  THR274      0.1794
    146  OG1       -9.3810  -13.1500   10.5110 O.3   274  THR274     -0.2208
    147  CG2      -11.1700  -14.1440    9.4470 C.3   274  THR274      0.0378
    148  N        -11.3200    6.4670    7.7020 N.3   362  LEU362     -0.1245
    149  CA       -10.7110    5.2160    8.1220 C.3   362  LEU362      0.1561
    150  C        -11.7550    4.3560    8.8410 C.2   362  LEU362      0.2260
    151  O        -11.9440    3.1930    8.5160 O.2   362  LEU362     -0.2867
    152  CB        -9.5260    5.4840    9.0600 C.3   362  LEU362      0.0270
    153  CG        -8.9800    4.2630    9.8270 C.3   362  LEU362      0.0019
    154  CD1       -7.9990    3.4810    8.9800 C.3   362  LEU362      0.0001
    155  CD2       -8.3190    4.7160   11.1320 C.3   362  LEU362      0.0001
    156  N        -12.0490    4.3180    2.8190 N.3   367  SER367     -0.1202
    157  CA       -10.7380    4.4710    2.1920 C.3   367  SER367      0.2020
    158  C         -9.8370    3.2580    2.3720 C.2   367  SER367      0.2619
    159  O         -9.9940    2.5000    3.3060 O.2   367  SER367     -0.2717
    160  CB       -10.0200    5.6710    2.8080 C.3   367  SER367      0.2103
    161  OG        -9.8670    5.4510    4.2020 O.3   367  SER367     -0.2182
    162  N         -8.8970    3.0790    1.4600 N.am  368  ILE368     -0.1965
    163  CA        -7.8520    2.0980    1.6260 C.3   368  ILE368      0.1727
    164  C         -6.8110    2.8440    2.4560 C.2   368  ILE368      0.2616
    165  O         -6.2630    2.3630    3.4540 O.2   368  ILE368     -0.2715
    166  CB        -7.2720    1.7690    0.2500 C.3   368  ILE368      0.0290
    167  CG1       -8.3630    1.1670   -0.6530 C.3   368  ILE368      0.0022
    168  CG2       -6.0870    0.8240    0.3840 C.3   368  ILE368      0.0023
    169  CD1       -8.8320   -0.2010   -0.2140 C.3   368  ILE368      0.0001
    170  N         -6.5810    4.0830    2.0630 N.am  369  ARG369     -0.1977
    171  CA        -5.5470    4.8400    2.7070 C.3   369  ARG369      0.1597
    172  C         -5.7970    6.3000    2.4850 C.2   369  ARG369      0.2287
    173  O         -5.9820    6.7270    1.3470 O.2   369  ARG369     -0.2864
    174  CB        -4.2290    4.4980    2.0250 C.3   369  ARG369      0.0334
    175  CG        -3.0280    4.3400    2.9110 C.3   369  ARG369      0.0492
    176  CD        -2.8980    5.2320    4.1680 C.3   369  ARG369      0.2205
    177  NE        -2.0860    4.4670    5.1330 N.pl3 369  ARG369     -0.0865
    178  CZ        -2.4430    3.2810    5.6170 C.cat 369  ARG369      0.5346
    179  NH1       -3.6130    2.7540    5.2810 N.pl3 369  ARG369      0.1354
    180  NH2       -1.6560    2.6260    6.4630 N.pl3 369  ARG369      0.1354
@<TRIPOS>BOND
     1    94    93    2
     2    93    92    1
     3    91    92    1
     4    92    95    1
     5    39    38    1
     6    95    96    1
     7    40    38    1
     8   167   169    1
     9   167   166    1
    10    86    85    2
    11    38    37    1
    12    85    84    1
    13    60    61    1
    14    97    96    1
    15    97    98    1
    16    37    34    1
    17    59    58    2
    18    89    88    2
    19   166   168    1
    20   166   163    1
    21    36    35    2
    22    61    62    1
    23    61    64    1
    24    58    57    1
    25    70    69    2
    26    66    64    1
    27    84    87    1
    28    84    83    1
    29    34    35    1
    30    34    33    1
    31    98    99    1
    32    88    87    1
    33    88    90   am
    34    35    41   am
    35    71    68    1
    36    71    72    1
    37    67    62   am
    38    67    68    1
    39   173   172    2
    40    44    43    2
    41    62    63    2
    42    48    47    2
    43   162   163    1
    44   162   158   am
    45   163   164    1
    46    64    65    1
    47   100   106    1
    48   100   101    1
    49    83    77   am
    50    78    77    2
    51    69    68    1
    52    69    75   am
    53   174   171    1
    54   174   175    1
    55   170   164   am
    56   170   171    1
    57    46    47    1
    58    46    45    1
    59    77    76    1
    60   157   158    1
    61   157   160    1
    62   157   156    1
    63    72    74   ar
    64    72    73   ar
    65    43    45   am
    66    43    42    1
    67    57    56    1
    68   106   105    1
    69    47    49   am
    70    33    31   am
    71   158   159    2
    72   164   165    2
    73   172   171    1
    74   101   102    1
    75   101   104    1
    76    41    42    1
    77    52    51    2
    78   102   103    2
    79   160   161    1
    80    32    31    2
    81   175   176    1
    82    76    75    1
    83    76    79    1
    84    56    51   am
    85    31    30    1
    86    51    50    1
    87    18    19    1
    88    49    50    1
    89   105   104    1
    90    50    53    1
    91    29    30    1
    92    29    20   am
    93   176   177    1
    94    19    20    1
    95    19    22    1
    96    79    81    1
    97    79    80    1
    98    26    28   ar
    99    26    24   ar
   100    20    21    2
   101    28    27   ar
   102    24    23   ar
   103   177   178    2
   104    27    25   ar
   105    80    82    1
   106    23    25   ar
   107    23    22    1
   108   179   178    1
   109    53    54    1
   110    53    55    1
   111   112   111    1
   112   178   180    1
   113   113   111    1
   114   111   108    1
   115   107   108    1
   116   121   119    1
   117   148   149    1
   118   108   109    1
   119   119   118    1
   120   149   150    1
   121   149   152    1
   122   151   150    2
   123   109   114   am
   124   109   110    2
   125   114   115    1
   126   154   153    1
   127   152   153    1
   128   118   115    1
   129   118   120    1
   130    17    15    1
   131   147   145    1
   132   115   116    1
   133     1     2    1
   134   145   146    1
   135   145   142    1
   136   153   155    1
   137   144   143    2
   138     2     5    1
   139     2     3    1
   140     5     6    1
   141    14    15    2
   142    14    13    1
   143    15    16    1
   144   142   143    1
   145   142   141    1
   146    12    13    1
   147    12    11    1
   148     7     3   am
   149     7     8    1
   150     3     4    2
   151   116   117    2
   152   128   129    1
   153   128   127    1
   154    11     8    1
   155     8     9    1
   156   141   135   am
   157   129   130    2
   158   136   135    2
   159   127   126    1
   160   135   134    1
   161   126   123    1
   162   140   138   ar
   163   130   131    1
   164   130   132    1
   165   122   123    1
   166     9    10    2
   167   138   139   ar
   168   138   137    1
   169   125   124    2
   170   123   124    1
   171   137   134    1
   172   134   133    1
