@<TRIPOS>MOLECULE
tmp/1juhC00.pdb
 107 102 0 0 0
SMALL
GASTEIGER

@<TRIPOS>ATOM
      1  N         63.3120   -2.0420   40.1560 N.3    55  ASP55      -0.1225
      2  CA        63.5750   -3.4490   40.3930 C.3    55  ASP55       0.1805
      3  C         64.6030   -3.9430   39.3690 C.2    55  ASP55       0.2598
      4  O         64.9850   -5.1110   39.3900 O.2    55  ASP55      -0.2718
      5  CB        62.2780   -4.2500   40.2730 C.3    55  ASP55       0.1424
      6  CG        61.3280   -3.9870   41.4240 C.2    55  ASP55       0.3668
      7  OD1       61.7970   -3.8850   42.5740 O.co2  55  ASP55      -0.2456
      8  OD2       60.1060   -3.8910   41.1850 O.co2  55  ASP55      -0.2456
      9  N         65.0410   -3.0540   38.4750 N.am   56  ALA56      -0.1966
     10  CA        66.0250   -3.3980   37.4340 C.3    56  ALA56       0.1728
     11  C         67.3120   -2.5980   37.5910 C.2    56  ALA56       0.2616
     12  O         67.3260   -1.5620   38.2600 O.2    56  ALA56      -0.2715
     13  CB        65.4370   -3.1280   36.0510 C.3    56  ALA56       0.0334
     14  N         68.3930   -3.0860   36.9830 N.am   57  LEU57      -0.1977
     15  CA        69.6640   -2.3760   37.0300 C.3    57  LEU57       0.1596
     16  C         69.4390   -1.0210   36.3720 C.2    57  LEU57       0.2287
     17  O         68.6260   -0.9000   35.4560 O.2    57  LEU57      -0.2864
     18  CB        70.7460   -3.1300   36.2500 C.3    57  LEU57       0.0297
     19  CG        71.1430   -4.5080   36.7780 C.3    57  LEU57       0.0022
     20  CD1       72.2300   -5.1080   35.8640 C.3    57  LEU57       0.0001
     21  CD2       71.6320   -4.3670   38.2140 C.3    57  LEU57       0.0001
     22  N         72.5350    0.4500   45.0690 N.3    79  GLN79      -0.1245
     23  CA        73.5640   -0.5760   45.1820 C.3    79  GLN79       0.1566
     24  C         74.5500   -0.3850   44.0340 C.2    79  GLN79       0.2260
     25  O         74.1600    0.0180   42.9340 O.2    79  GLN79      -0.2867
     26  CB        72.9300   -1.9770   45.1320 C.3    79  GLN79       0.0367
     27  CG        73.9510   -3.0950   45.3770 C.3    79  GLN79       0.0905
     28  CD        73.3580   -4.3640   45.9430 C.2    79  GLN79       0.2608
     29  OE1       74.0740   -5.3510   46.1680 O.2    79  GLN79      -0.2717
     30  NE2       72.0510   -4.3590   46.1840 N.am   79  GLN79      -0.0878
     31  N         77.8970   -2.3770   42.0870 N.3    81  TRP81      -0.1241
     32  CA        78.6530   -3.6250   41.8970 C.3    81  TRP81       0.1605
     33  C         79.9200   -3.2640   41.1280 C.2    81  TRP81       0.2264
     34  O         79.8610   -2.4770   40.1720 O.2    81  TRP81      -0.2867
     35  CB        77.8460   -4.6330   41.0710 C.3    81  TRP81       0.0550
     36  CG        76.6940   -5.2880   41.7770 C.ar   81  TRP81       0.0003
     37  CD1       76.6950   -6.5040   42.4100 C.ar   81  TRP81       0.0946
     38  CD2       75.3420   -4.8120   41.8270 C.ar   81  TRP81       0.0152
     39  NE1       75.4250   -6.8200   42.8340 N.ar   81  TRP81      -0.2442
     40  CE2       74.5740   -5.8010   42.4880 C.ar   81  TRP81       0.0810
     41  CE3       74.7040   -3.6500   41.3730 C.ar   81  TRP81       0.0012
     42  CZ2       73.1970   -5.6610   42.7020 C.ar   81  TRP81       0.0191
     43  CZ3       73.3260   -3.5100   41.5840 C.ar   81  TRP81       0.0001
     44  CH2       72.5920   -4.5120   42.2400 C.ar   81  TRP81       0.0015
     45  N         75.6830   -1.3450   49.2660 N.3    93  VAL93      -0.1245
     46  CA        74.4950   -0.5230   49.1340 C.3    93  VAL93       0.1561
     47  C         74.9170    0.8010   49.7800 C.2    93  VAL93       0.2260
     48  O         75.1800    0.8670   50.9870 O.2    93  VAL93      -0.2867
     49  CB        73.2870   -1.1050   49.8890 C.3    93  VAL93       0.0252
     50  CG1       72.0930   -0.1070   49.8360 C.3    93  VAL93       0.0019
     51  CG2       72.8780   -2.4160   49.2620 C.3    93  VAL93       0.0019
     52  N         71.9810   -0.0540   40.9350 N.3   111  GLN111     -0.1245
     53  CA        70.5250   -0.2020   40.9540 C.3   111  GLN111      0.1566
     54  C         69.9810    0.7340   42.0300 C.2   111  GLN111      0.2260
     55  O         70.4680    0.7280   43.1630 O.2   111  GLN111     -0.2867
     56  CB        70.1180   -1.6480   41.2720 C.3   111  GLN111      0.0367
     57  CG        68.6070   -1.8350   41.3410 C.3   111  GLN111      0.0905
     58  CD        68.1990   -3.3030   41.3580 C.2   111  GLN111      0.2608
     59  OE1       68.9220   -4.1590   40.8440 O.2   111  GLN111     -0.2717
     60  NE2       67.0290   -3.5960   41.9270 N.am  111  GLN111     -0.0878
     61  N         77.6250  -10.9830   35.7700 N.3   168  THR168     -0.1204
     62  CA        76.3920  -11.2170   36.5070 C.3   168  THR168      0.1979
     63  C         76.5690  -10.6230   37.9000 C.2   168  THR168      0.2459
     64  O         77.3580  -11.1140   38.7030 O.2   168  THR168     -0.2732
     65  CB        76.0450  -12.7270   36.6220 C.3   168  THR168      0.1783
     66  OG1       75.9380  -13.2920   35.3040 O.3   168  THR168     -0.2211
     67  CG2       74.7040  -12.9050   37.3450 C.3   168  THR168      0.0376
     68  N         75.8480   -9.5310   38.1870 N.am  169  PRO169     -0.2728
     69  CA        75.9390   -8.8790   39.5020 C.3   169  PRO169      0.1401
     70  C         75.6250   -9.9050   40.5850 C.2   169  PRO169      0.2269
     71  O         74.6010  -10.5850   40.5120 O.2   169  PRO169     -0.2865
     72  CB        74.8760   -7.7810   39.4200 C.3   169  PRO169      0.0296
     73  CG        74.8700   -7.4370   37.9380 C.3   169  PRO169      0.0237
     74  CD        74.9200   -8.8130   37.2910 C.3   169  PRO169      0.0939
     75  N         74.3300  -11.8250   43.8540 N.3   171  THR171     -0.1218
     76  CA        73.0400  -11.7110   44.5030 C.3   171  THR171      0.1862
     77  C         72.9780  -12.2770   45.9160 C.2   171  THR171      0.2287
     78  O         71.9160  -12.7040   46.3630 O.2   171  THR171     -0.2866
     79  CB        71.9720  -12.3990   43.6160 C.3   171  THR171      0.1770
     80  OG1       72.4030  -13.7350   43.3250 O.3   171  THR171     -0.2211
     81  CG2       71.8110  -11.6580   42.2860 C.3   171  THR171      0.0375
     82  N         73.8680  -10.4710   48.6600 N.3   173  THR173     -0.1203
     83  CA        74.0320   -9.2990   49.5140 C.3   173  THR173      0.1994
     84  C         73.3080   -9.5150   50.8440 C.2   173  THR173      0.2618
     85  O         72.1790  -10.0160   50.8790 O.2   173  THR173     -0.2717
     86  CB        73.4260   -8.0260   48.8530 C.3   173  THR173      0.1784
     87  OG1       73.8620   -7.9330   47.4900 O.3   173  THR173     -0.2211
     88  CG2       73.8550   -6.7630   49.6180 C.3   173  THR173      0.0376
     89  N         73.9670   -9.1240   51.9250 N.am  174  VAL174     -0.1965
     90  CA        73.4160   -9.2030   53.2850 C.3   174  VAL174      0.1727
     91  C         73.8930   -7.9510   54.0140 C.2   174  VAL174      0.2616
     92  O         75.0710   -7.6360   53.9560 O.2   174  VAL174     -0.2715
     93  CB        73.9660  -10.4240   54.0680 C.3   174  VAL174      0.0290
     94  CG1       73.4060  -10.4260   55.4970 C.3   174  VAL174      0.0023
     95  CG2       73.5970  -11.7040   53.3480 C.3   174  VAL174      0.0023
     96  N         72.9960   -7.2440   54.7070 N.am  175  ASN175     -0.1958
     97  CA        73.4000   -6.0330   55.4320 C.3   175  ASN175      0.1819
     98  C         74.1410   -5.0330   54.5340 C.2   175  ASN175      0.2621
     99  O         75.1290   -4.4200   54.9500 O.2   175  ASN175     -0.2715
    100  CB        74.2960   -6.3820   56.6280 C.3   175  ASN175      0.1195
    101  CG        73.5570   -7.1630   57.6910 C.2   175  ASN175      0.2630
    102  OD1       72.3450   -7.0500   57.8070 O.2   175  ASN175     -0.2716
    103  ND2       74.2800   -7.9430   58.4840 N.am  175  ASN175     -0.0877
    104  N         73.6740   -4.8990   53.2990 N.am  176  GLY176     -0.1954
    105  CA        74.2530   -3.9390   52.3660 C.3   176  GLY176      0.1869
    106  C         75.6060   -4.2340   51.7560 C.2   176  GLY176      0.2309
    107  O         76.2460   -3.3420   51.1840 O.2   176  GLY176     -0.2863
@<TRIPOS>BOND
     1    66    65    1
     2    17    16    2
     3    61    62    1
     4    20    19    1
     5    13    10    1
     6    18    19    1
     7    18    15    1
     8    16    15    1
     9    62    65    1
    10    62    63    1
    11    65    67    1
    12    19    21    1
    13    14    15    1
    14    14    11   am
    15    74    73    1
    16    74    68    1
    17    10    11    1
    18    10     9    1
    19    11    12    2
    20    63    68   am
    21    63    64    2
    22    73    72    1
    23    68    69    1
    24     9     3   am
    25     3     4    2
    26     3     2    1
    27    72    69    1
    28    69    70    1
    29     1     2    1
    30    34    33    2
    31     5     2    1
    32     5     6    1
    33    71    70    2
    34    59    58    2
    35    52    53    1
    36    53    56    1
    37    53    54    1
    38    35    36    1
    39    35    32    1
    40    33    32    1
    41     8     6   ar
    42    56    57    1
    43    57    58    1
    44    58    60   am
    45    41    43   ar
    46    41    38   ar
    47     6     7   ar
    48    43    44   ar
    49    36    38   ar
    50    36    37   ar
    51    38    40   ar
    52    32    31    1
    53    54    55    2
    54    44    42   ar
    55    81    79    1
    56    37    39   ar
    57    40    42   ar
    58    40    39   ar
    59    25    24    2
    60    80    79    1
    61    79    76    1
    62    75    76    1
    63    24    23    1
    64    76    77    1
    65    22    23    1
    66    26    23    1
    67    26    27    1
    68    27    28    1
    69    77    78    2
    70    28    29    2
    71    28    30   am
    72    87    86    1
    73    82    83    1
    74    86    83    1
    75    86    88    1
    76    46    45    1
    77    46    47    1
    78    46    49    1
    79    51    49    1
    80    83    84    1
    81    47    48    2
    82    50    49    1
    83    84    85    2
    84    84    89   am
    85   107   106    2
    86   106   105    1
    87    89    90    1
    88   105   104    1
    89    90    91    1
    90    90    93    1
    91   104    98   am
    92    95    93    1
    93    92    91    2
    94    91    96   am
    95    93    94    1
    96    98    99    2
    97    98    97    1
    98    96    97    1
    99    97   100    1
   100   100   101    1
   101   101   102    2
   102   101   103   am
