@<TRIPOS>MOLECULE
tmp/1jujC01.pdb
 221 213 0 0 0
SMALL
GASTEIGER

@<TRIPOS>ATOM
      1  N          6.8190  -41.6960  -45.7660 N.3    23  ARG23      -0.1231
      2  CA         7.6880  -41.5220  -46.9140 C.3    23  ARG23       0.1694
      3  C          7.3480  -40.3290  -47.8140 C.2    23  ARG23       0.2592
      4  O          8.2520  -39.6710  -48.3240 O.2    23  ARG23      -0.2718
      5  CB         7.7390  -42.8240  -47.7450 C.3    23  ARG23       0.0321
      6  CG         6.4560  -43.6750  -47.7420 C.3    23  ARG23       0.0489
      7  CD         6.5470  -44.8880  -48.7020 C.3    23  ARG23       0.2205
      8  NE         6.1880  -44.5390  -50.0750 N.pl3  23  ARG23      -0.0865
      9  CZ         4.9790  -44.1330  -50.4400 C.cat  23  ARG23       0.5346
     10  NH1        4.0170  -44.0300  -49.5350 N.pl3  23  ARG23       0.1354
     11  NH2        4.7300  -43.8180  -51.7030 N.pl3  23  ARG23       0.1354
     12  N          6.0630  -40.0270  -47.9910 N.am   24  THR24      -0.1953
     13  CA         5.6610  -38.9290  -48.8790 C.3    24  THR24       0.1897
     14  C          6.1070  -37.5730  -48.4060 C.2    24  THR24       0.2313
     15  O          6.1590  -36.6310  -49.1850 O.2    24  THR24      -0.2863
     16  CB         4.1310  -38.8480  -49.0640 C.3    24  THR24       0.1794
     17  OG1        3.5260  -38.3210  -47.8760 O.3    24  THR24      -0.2208
     18  CG2        3.5570  -40.2220  -49.3640 C.3    24  THR24       0.0378
     19  N        -20.1290  -39.6860  -50.3990 N.3    50  LYS50      -0.1231
     20  CA       -19.1740  -39.2100  -51.3950 C.3    50  LYS50       0.1693
     21  C        -19.4320  -40.0720  -52.6320 C.2    50  LYS50       0.2592
     22  O        -20.0220  -41.1510  -52.5250 O.2    50  LYS50      -0.2718
     23  CB       -17.7500  -39.4220  -50.8580 C.3    50  LYS50       0.0285
     24  CG       -16.5940  -39.2790  -51.8340 C.3    50  LYS50       0.0035
     25  CD       -15.3500  -39.9040  -51.2050 C.3    50  LYS50       0.0206
     26  CE       -14.1460  -39.8370  -52.1210 C.3    50  LYS50       0.1093
     27  NZ       -12.9990  -40.6130  -51.5680 N.3    50  LYS50      -0.1314
     28  N        -19.0190  -39.5950  -53.8010 N.am   51  ARG51      -0.1966
     29  CA       -19.2200  -40.3560  -55.0300 C.3    51  ARG51       0.1729
     30  C        -17.9650  -41.1570  -55.3220 C.2    51  ARG51       0.2616
     31  O        -16.8770  -40.5990  -55.4610 O.2    51  ARG51      -0.2715
     32  CB       -19.5080  -39.4190  -56.2030 C.3    51  ARG51       0.0348
     33  CG       -19.9880  -40.1360  -57.4590 C.3    51  ARG51       0.0492
     34  CD       -20.3120  -39.1610  -58.5880 C.3    51  ARG51       0.2205
     35  NE       -21.3860  -39.6640  -59.4400 N.pl3  51  ARG51      -0.0865
     36  CZ       -22.6790  -39.6180  -59.1250 C.cat  51  ARG51       0.5346
     37  NH1      -23.0710  -39.0820  -57.9760 N.pl3  51  ARG51       0.1354
     38  NH2      -23.5860  -40.1180  -59.9510 N.pl3  51  ARG51       0.1354
     39  N        -18.1140  -42.4700  -55.4160 N.am   52  VAL52      -0.1963
     40  CA       -16.9630  -43.3160  -55.6810 C.3    52  VAL52       0.1727
     41  C        -16.8530  -43.6570  -57.1600 C.2    52  VAL52       0.2616
     42  O        -17.8470  -43.9460  -57.8200 O.2    52  VAL52      -0.2715
     43  CB       -17.0390  -44.6160  -54.8590 C.3    52  VAL52       0.0290
     44  CG1      -15.7650  -45.4200  -55.0270 C.3    52  VAL52       0.0023
     45  CG2      -17.2640  -44.2810  -53.4050 C.3    52  VAL52       0.0023
     46  N        -15.6310  -43.6080  -57.6710 N.am   53  PHE53      -0.1974
     47  CA       -15.3540  -43.9080  -59.0720 C.3    53  PHE53       0.1639
     48  C        -15.5170  -45.4120  -59.3100 C.2    53  PHE53       0.2290
     49  O        -14.5370  -46.1300  -59.5210 O.2    53  PHE53      -0.2864
     50  CB       -13.9190  -43.4740  -59.4060 C.3    53  PHE53       0.0560
     51  CG       -13.5910  -43.4870  -60.8760 C.ar   53  PHE53      -0.0200
     52  CD1      -12.2670  -43.4020  -61.3010 C.ar   53  PHE53      -0.0042
     53  CD2      -14.5970  -43.5480  -61.8350 C.ar   53  PHE53      -0.0042
     54  CE1      -11.9480  -43.3740  -62.6560 C.ar   53  PHE53      -0.0003
     55  CE2      -14.2870  -43.5200  -63.1940 C.ar   53  PHE53      -0.0003
     56  CZ       -12.9590  -43.4330  -63.6040 C.ar   53  PHE53      -0.0000
     57  N        -10.0300  -52.0400  -62.2420 N.3    60  GLU60      -0.1245
     58  CA        -8.8380  -52.4580  -61.5110 C.3    60  GLU60       0.1567
     59  C         -8.8990  -53.9400  -61.1440 C.2    60  GLU60       0.2260
     60  O         -7.9130  -54.6580  -61.3290 O.2    60  GLU60      -0.2867
     61  CB        -8.6640  -51.6180  -60.2340 C.3    60  GLU60       0.0388
     62  CG        -7.4030  -51.9580  -59.4050 C.3    60  GLU60       0.1160
     63  CD        -7.4120  -51.3380  -58.0010 C.2    60  GLU60       0.3649
     64  OE1       -8.4330  -51.4920  -57.2880 O.co2  60  GLU60      -0.2457
     65  OE2       -6.3960  -50.7140  -57.6110 O.co2  60  GLU60      -0.2457
     66  N         -6.7290  -44.0200  -64.5220 N.3    80  LYS80      -0.1231
     67  CA        -5.3960  -43.4960  -64.2490 C.3    80  LYS80       0.1693
     68  C         -4.8150  -43.8040  -62.8660 C.2    80  LYS80       0.2592
     69  O         -3.6130  -43.6590  -62.6520 O.2    80  LYS80      -0.2718
     70  CB        -5.4110  -41.9810  -64.4580 C.3    80  LYS80       0.0285
     71  CG        -5.9630  -41.5360  -65.8070 C.3    80  LYS80       0.0035
     72  CD        -5.0150  -41.8980  -66.9300 C.3    80  LYS80       0.0206
     73  CE        -5.4840  -41.3320  -68.2570 C.3    80  LYS80       0.1093
     74  NZ        -4.4520  -41.5110  -69.3290 N.3    80  LYS80      -0.1314
     75  N         -5.6640  -44.2410  -61.9410 N.am   81  ILE81      -0.1966
     76  CA        -5.2400  -44.5200  -60.5690 C.3    81  ILE81       0.1727
     77  C         -3.8540  -45.1220  -60.3410 C.2    81  ILE81       0.2616
     78  O         -3.3010  -44.9790  -59.2520 O.2    81  ILE81      -0.2715
     79  CB        -6.2680  -45.4080  -59.8070 C.3    81  ILE81       0.0290
     80  CG1       -6.3350  -46.8050  -60.4250 C.3    81  ILE81       0.0022
     81  CG2       -7.6340  -44.7330  -59.7990 C.3    81  ILE81       0.0023
     82  CD1       -7.1180  -47.8000  -59.5780 C.3    81  ILE81       0.0001
     83  N         -3.2770  -45.7900  -61.3290 N.am   82  TRP82      -0.1974
     84  CA        -1.9560  -46.3600  -61.0980 C.3    82  TRP82       0.1640
     85  C         -0.8340  -45.7910  -61.9490 C.2    82  TRP82       0.2290
     86  O          0.2870  -46.2930  -61.9020 O.2    82  TRP82      -0.2864
     87  CB        -1.9760  -47.8880  -61.2600 C.3    82  TRP82       0.0576
     88  CG        -2.4000  -48.6210  -60.0250 C.ar   82  TRP82       0.0006
     89  CD1       -3.6500  -49.0590  -59.7250 C.ar   82  TRP82       0.0946
     90  CD2       -1.5840  -48.9320  -58.8960 C.ar   82  TRP82       0.0152
     91  NE1       -3.6710  -49.6220  -58.4780 N.ar   82  TRP82      -0.2442
     92  CE2       -2.4130  -49.5570  -57.9430 C.ar   82  TRP82       0.0810
     93  CE3       -0.2310  -48.7390  -58.5920 C.ar   82  TRP82       0.0012
     94  CZ2       -1.9350  -49.9950  -56.7000 C.ar   82  TRP82       0.0191
     95  CZ3        0.2430  -49.1710  -57.3570 C.ar   82  TRP82       0.0001
     96  CH2       -0.6100  -49.7930  -56.4250 C.ar   82  TRP82       0.0015
     97  N          2.6100  -44.2100  -59.7440 N.3    85  ASN85      -0.1240
     98  CA         3.7390  -45.0140  -59.2760 C.3    85  ASN85       0.1653
     99  C          4.3760  -45.8460  -60.3860 C.2    85  ASN85       0.2266
    100  O          5.1970  -46.7300  -60.1300 O.2    85  ASN85      -0.2867
    101  CB         3.2890  -45.9220  -58.1250 C.3    85  ASN85       0.1155
    102  CG         2.4520  -45.1840  -57.0980 C.2    85  ASN85       0.2627
    103  OD1        1.2420  -44.9990  -57.2700 O.2    85  ASN85      -0.2716
    104  ND2        3.0990  -44.7370  -56.0310 N.am   85  ASN85      -0.0877
    105  N          5.6910  -50.3310  -55.3180 N.3   165  LEU165     -0.1245
    106  CA         4.8290  -49.9050  -54.2220 C.3   165  LEU165      0.1561
    107  C          4.1260  -51.1570  -53.6960 C.2   165  LEU165      0.2260
    108  O          3.1350  -51.6130  -54.2720 O.2   165  LEU165     -0.2867
    109  CB         3.8240  -48.8890  -54.7640 C.3   165  LEU165      0.0270
    110  CG         2.7400  -48.1800  -53.9530 C.3   165  LEU165      0.0019
    111  CD1        1.7830  -49.2080  -53.3570 C.3   165  LEU165      0.0001
    112  CD2        3.3680  -47.3180  -52.8890 C.3   165  LEU165      0.0001
    113  N         -0.8050  -53.0550  -50.2990 N.3   168  CYS168     -0.1235
    114  CA        -1.4140  -52.4580  -49.1150 C.3   168  CYS168      0.1677
    115  C         -2.4000  -53.4880  -48.5760 C.2   168  CYS168      0.2270
    116  O         -2.5330  -53.6560  -47.3610 O.2   168  CYS168     -0.2867
    117  CB        -2.1000  -51.1420  -49.4630 C.3   168  CYS168      0.0956
    118  SG        -0.8940  -49.8860  -49.9900 S.3   168  CYS168     -0.0801
    119  N         -5.0480  -45.6140  -46.6280 N.3   191  ASP191     -0.1239
    120  CA        -5.2610  -44.1870  -46.8710 C.3   191  ASP191      0.1674
    121  C         -6.7750  -44.0030  -46.7670 C.2   191  ASP191      0.2266
    122  O         -7.5090  -44.1540  -47.7480 O.2   191  ASP191     -0.2867
    123  CB        -4.7780  -43.7980  -48.2740 C.3   191  ASP191      0.1410
    124  CG        -4.9900  -42.3200  -48.5860 C.2   191  ASP191      0.3668
    125  OD1       -4.3780  -41.8250  -49.5570 O.co2 191  ASP191     -0.2456
    126  OD2       -5.7660  -41.6520  -47.8680 O.co2 191  ASP191     -0.2456
    127  N         -8.6190  -41.8690  -49.7200 N.3   194  LEU194     -0.1231
    128  CA        -8.6380  -42.2860  -51.1100 C.3   194  LEU194      0.1693
    129  C         -8.8010  -43.7790  -51.3360 C.2   194  LEU194      0.2592
    130  O         -9.8510  -44.2310  -51.7840 O.2   194  LEU194     -0.2718
    131  CB        -7.3710  -41.8290  -51.8320 C.3   194  LEU194      0.0284
    132  CG        -7.1700  -40.3400  -52.1050 C.3   194  LEU194      0.0019
    133  CD1       -6.0250  -40.1720  -53.0980 C.3   194  LEU194      0.0001
    134  CD2       -8.4400  -39.7300  -52.6710 C.3   194  LEU194      0.0001
    135  N         -7.7590  -44.5350  -51.0180 N.am  195  GLY195     -0.1957
    136  CA        -7.7660  -45.9710  -51.2420 C.3   195  GLY195      0.1869
    137  C         -8.7550  -46.8570  -50.5080 C.2   195  GLY195      0.2309
    138  O         -9.3450  -47.7590  -51.1080 O.2   195  GLY195     -0.2863
    139  N        -12.1680  -47.2600  -51.9800 N.3   198  PHE198     -0.1227
    140  CA       -11.9710  -48.0270  -53.2140 C.3   198  PHE198      0.1736
    141  C        -11.7380  -49.4990  -52.8650 C.2   198  PHE198      0.2595
    142  O        -12.2310  -50.4040  -53.5400 O.2   198  PHE198     -0.2718
    143  CB       -10.7190  -47.5380  -53.9520 C.3   198  PHE198      0.0547
    144  CG       -10.9740  -46.8740  -55.2840 C.ar  198  PHE198     -0.0202
    145  CD1      -11.5690  -45.6170  -55.3550 C.ar  198  PHE198     -0.0042
    146  CD2      -10.4920  -47.4550  -56.4590 C.ar  198  PHE198     -0.0042
    147  CE1      -11.6680  -44.9420  -56.5760 C.ar  198  PHE198     -0.0003
    148  CE2      -10.5850  -46.7890  -57.6840 C.ar  198  PHE198     -0.0003
    149  CZ       -11.1700  -45.5300  -57.7420 C.ar  198  PHE198     -0.0000
    150  N        -10.9670  -49.7250  -51.8100 N.am  199  ASN199     -0.1974
    151  CA       -10.6250  -51.0740  -51.4010 C.3   199  ASN199      0.1688
    152  C        -11.8020  -51.8880  -50.8870 C.2   199  ASN199      0.2292
    153  O        -11.9330  -53.0760  -51.1990 O.2   199  ASN199     -0.2864
    154  CB        -9.5010  -51.0250  -50.3560 C.3   199  ASN199      0.1181
    155  CG        -8.1970  -50.4790  -50.9280 C.2   199  ASN199      0.2629
    156  OD1       -7.7840  -50.8620  -52.0220 O.2   199  ASN199     -0.2716
    157  ND2       -7.5430  -49.5920  -50.1890 N.am  199  ASN199     -0.0877
    158  N         -4.0450  -38.5490  -44.3110 N.3   231  TYR231     -0.1241
    159  CA        -3.0740  -37.5310  -44.6560 C.3   231  TYR231      0.1605
    160  C         -3.6330  -36.1770  -44.2130 C.2   231  TYR231      0.2264
    161  O         -4.8260  -35.9050  -44.3680 O.2   231  TYR231     -0.2867
    162  CB        -2.7950  -37.5530  -46.1530 C.3   231  TYR231      0.0534
    163  CG        -2.0220  -38.7770  -46.5840 C.ar  231  TYR231     -0.0201
    164  CD1       -2.6770  -39.9130  -47.0580 C.ar  231  TYR231     -0.0009
    165  CD2       -0.6250  -38.8110  -46.4850 C.ar  231  TYR231     -0.0009
    166  CE1       -1.9600  -41.0540  -47.4220 C.ar  231  TYR231      0.0417
    167  CE2        0.0960  -39.9440  -46.8430 C.ar  231  TYR231      0.0417
    168  CZ        -0.5770  -41.0600  -47.3080 C.ar  231  TYR231      0.1957
    169  OH         0.1330  -42.1840  -47.6420 O.3   231  TYR231     -0.2866
    170  N        -19.3320  -35.4140  -55.2890 N.3   279  THR279     -0.1203
    171  CA       -17.9210  -35.7430  -55.1350 C.3   279  THR279      0.1994
    172  C        -17.1730  -34.8330  -54.1710 C.2   279  THR279      0.2618
    173  O        -17.6250  -33.7340  -53.8470 O.2   279  THR279     -0.2717
    174  CB       -17.2000  -35.6700  -56.4910 C.3   279  THR279      0.1784
    175  OG1      -17.9630  -36.3790  -57.4740 O.3   279  THR279     -0.2211
    176  CG2      -15.8120  -36.2940  -56.3990 C.3   279  THR279      0.0376
    177  N        -16.0200  -35.3210  -53.7200 N.am  280  ILE280     -0.1965
    178  CA       -15.1360  -34.5940  -52.8160 C.3   280  ILE280      0.1727
    179  C        -13.7200  -34.8410  -53.3180 C.2   280  ILE280      0.2616
    180  O        -13.2370  -35.9760  -53.2830 O.2   280  ILE280     -0.2715
    181  CB       -15.2330  -35.1220  -51.3850 C.3   280  ILE280      0.0290
    182  CG1      -16.6550  -34.9310  -50.8590 C.3   280  ILE280      0.0022
    183  CG2      -14.2360  -34.4010  -50.5060 C.3   280  ILE280      0.0023
    184  CD1      -16.8510  -35.3950  -49.4360 C.3   280  ILE280      0.0001
    185  N        -13.0570  -33.7920  -53.7970 N.am  281  LYS281     -0.1963
    186  CA       -11.7070  -33.9410  -54.3160 C.3   281  LYS281      0.1728
    187  C        -10.6560  -33.9540  -53.2170 C.2   281  LYS281      0.2616
    188  O        -10.6970  -33.1370  -52.2980 O.2   281  LYS281     -0.2715
    189  CB       -11.3790  -32.8220  -55.3020 C.3   281  LYS281      0.0311
    190  CG       -12.2810  -32.7730  -56.5130 C.3   281  LYS281      0.0038
    191  CD       -11.5010  -32.3900  -57.7730 C.3   281  LYS281      0.0206
    192  CE       -10.7910  -31.0430  -57.6430 C.3   281  LYS281      0.1093
    193  NZ        -9.9670  -30.7170  -58.8510 N.3   281  LYS281     -0.1314
    194  N         -9.7220  -34.8980  -53.3280 N.am  282  MET282     -0.1977
    195  CA        -8.6180  -35.0530  -52.3850 C.3   282  MET282      0.1605
    196  C         -7.3800  -35.4340  -53.1750 C.2   282  MET282      0.2287
    197  O         -7.4180  -36.3410  -54.0090 O.2   282  MET282     -0.2864
    198  CB        -8.9390  -36.1260  -51.3550 C.3   282  MET282      0.0413
    199  CG        -9.9900  -35.6770  -50.3780 C.3   282  MET282      0.0598
    200  SD       -10.5450  -36.9950  -49.3210 S.3   282  MET282     -0.1393
    201  CE       -11.7530  -37.8420  -50.4110 C.3   282  MET282      0.0692
    202  N         -3.6910  -36.9230  -54.0700 N.3   284  MET284     -0.1230
    203  CA        -2.9730  -38.1430  -53.7490 C.3   284  MET284      0.1702
    204  C         -1.5410  -37.8590  -53.2880 C.2   284  MET284      0.2592
    205  O         -0.8310  -37.0390  -53.8790 O.2   284  MET284     -0.2718
    206  CB        -2.9400  -39.0660  -54.9690 C.3   284  MET284      0.0401
    207  CG        -2.5120  -40.4900  -54.6480 C.3   284  MET284      0.0596
    208  SD        -2.1890  -41.4730  -56.1110 S.3   284  MET284     -0.1393
    209  CE        -0.4480  -41.7690  -55.9460 C.3   284  MET284      0.0692
    210  N         -1.1280  -38.5370  -52.2210 N.am  285  ALA285     -0.1966
    211  CA         0.2220  -38.3890  -51.6920 C.3   285  ALA285      0.1728
    212  C          1.1050  -39.3910  -52.4370 C.2   285  ALA285      0.2616
    213  O          0.9230  -40.5990  -52.3180 O.2   285  ALA285     -0.2715
    214  CB         0.2230  -38.6720  -50.1890 C.3   285  ALA285      0.0334
    215  N          2.0570  -38.8940  -53.2150 N.am  286  VAL286     -0.1977
    216  CA         2.9200  -39.7840  -53.9860 C.3   286  VAL286      0.1596
    217  C          4.1700  -40.2860  -53.2530 C.2   286  VAL286      0.2287
    218  O          4.4310  -41.5080  -53.3100 O.2   286  VAL286     -0.2864
    219  CB         3.3520  -39.1140  -55.3020 C.3   286  VAL286      0.0276
    220  CG1        4.1550  -37.8510  -55.0080 C.3   286  VAL286      0.0022
    221  CG2        4.1550  -40.0950  -56.1390 C.3   286  VAL286      0.0022
@<TRIPOS>BOND
     1    74    73    1
     2    73    72    1
     3    72    71    1
     4    71    70    1
     5    66    67    1
     6    70    67    1
     7    67    68    1
     8    56    55   ar
     9    56    54   ar
    10    55    53   ar
    11    68    69    2
    12    68    75   am
    13    54    52   ar
    14    57    58    1
    15    85    86    2
    16    85    84    1
    17    75    76    1
    18    53    51   ar
    19    58    59    1
    20    58    61    1
    21    60    59    2
    22    83    84    1
    23    83    77   am
    24    52    51   ar
    25    87    84    1
    26    87    88    1
    27    51    50    1
    28    76    77    1
    29    76    79    1
    30    80    79    1
    31    80    82    1
    32    99   100    2
    33    99    98    1
    34    77    78    2
    35    61    62    1
    36    88    89   ar
    37    88    90   ar
    38    38    36    1
    39    79    81    1
    40    97    98    1
    41    89    91   ar
    42    49    48    2
    43    35    36    2
    44    35    34    1
    45    50    47    1
    46    62    63    1
    47    48    47    1
    48    98   101    1
    49    36    37    1
    50    47    46    1
    51    90    93   ar
    52    90    92   ar
    53   193   192    1
    54    93    95   ar
    55    34    33    1
    56    91    92   ar
    57   101   102    1
    58    63    65   ar
    59    63    64   ar
    60    92    94   ar
    61    42    41    2
    62   191   192    1
    63   191   190    1
    64   149   148   ar
    65   149   147   ar
    66   148   146   ar
    67    46    41   am
    68   175   174    1
    69    33    32    1
    70    95    96   ar
    71   103   102    2
    72    41    40    1
    73   102   104   am
    74    94    96   ar
    75   147   145   ar
    76   190   189    1
    77   174   176    1
    78   174   171    1
    79   146   144   ar
    80    32    29    1
    81   221   219    1
    82   208   209    1
    83   208   207    1
    84    40    39    1
    85    40    43    1
    86    31    30    2
    87    39    30   am
    88   145   144   ar
    89    30    29    1
    90   105   106    1
    91   219   220    1
    92   219   216    1
    93   189   186    1
    94   170   171    1
    95   144   143    1
    96   171   172    1
    97    29    28    1
    98    44    43    1
    99   206   207    1
   100   206   203    1
   101    43    45    1
   102   109   106    1
   103   109   110    1
   104   186   185    1
   105   186   187    1
   106   108   107    2
   107   106   107    1
   108   172   173    2
   109   172   177   am
   110   202   203    1
   111   197   196    2
   112   216   217    1
   113   216   215    1
   114   110   111    1
   115   110   112    1
   116   143   140    1
   117   205   204    2
   118    28    21   am
   119   185   179   am
   120   203   204    1
   121   177   178    1
   122   142   141    2
   123   194   187   am
   124   194   195    1
   125   179   180    2
   126   179   178    1
   127   218   217    2
   128   204   210   am
   129   187   188    2
   130   215   212   am
   131   140   141    1
   132   140   139    1
   133   196   195    1
   134   133   132    1
   135   141   150   am
   136   178   181    1
   137   134   132    1
   138    21    22    2
   139    21    20    1
   140   212   213    2
   141   212   211    1
   142   195   198    1
   143   210   211    1
   144    26    27    1
   145    26    25    1
   146   132   131    1
   147   156   155    2
   148    24    25    1
   149    24    23    1
   150   131   128    1
   151   150   151    1
   152   130   129    2
   153    11     9    1
   154   211   214    1
   155   151   152    1
   156   151   154    1
   157    20    23    1
   158    20    19    1
   159   181   182    1
   160   181   183    1
   161   198   199    1
   162   129   128    1
   163   129   135   am
   164   136   135    1
   165   136   137    1
   166   153   152    2
   167   128   127    1
   168   138   137    2
   169   155   154    1
   170   155   157   am
   171   182   184    1
   172     9     8    2
   173     9    10    1
   174   201   200    1
   175   199   200    1
   176   113   114    1
   177     8     7    1
   178   118   117    1
   179   125   124   ar
   180   117   114    1
   181    18    16    1
   182    15    14    2
   183   114   115    1
   184    16    13    1
   185    16    17    1
   186    13    14    1
   187    13    12    1
   188     7     6    1
   189   124   123    1
   190   124   126   ar
   191   115   116    2
   192     4     3    2
   193   123   120    1
   194    12     3   am
   195     3     2    1
   196   122   121    2
   197     5     6    1
   198     5     2    1
   199   169   168    1
   200   166   168   ar
   201   166   164   ar
   202   168   167   ar
   203   164   163   ar
   204     2     1    1
   205   120   121    1
   206   120   119    1
   207   167   165   ar
   208   163   165   ar
   209   163   162    1
   210   162   159    1
   211   159   158    1
   212   159   160    1
   213   161   160    2
