@<TRIPOS>MOLECULE
tmp/1julA00.pdb
 141 131 0 0 0
SMALL
GASTEIGER

@<TRIPOS>ATOM
      1  N         23.6750   27.0710   24.9240 N.3    50  GLU50      -0.1245
      2  CA        23.7100   25.6830   24.4960 C.3    50  GLU50       0.1567
      3  C         22.5740   25.2900   23.5670 C.2    50  GLU50       0.2260
      4  O         21.4060   25.6170   23.8110 O.2    50  GLU50      -0.2867
      5  CB        23.7220   24.7600   25.7110 C.3    50  GLU50       0.0388
      6  CG        23.8130   23.2910   25.3550 C.3    50  GLU50       0.1160
      7  CD        24.1950   22.4520   26.5440 C.2    50  GLU50       0.3649
      8  OE1       25.4040   22.3240   26.8150 O.co2  50  GLU50      -0.2457
      9  OE2       23.2920   21.9460   27.2230 O.co2  50  GLU50      -0.2457
     10  N         20.5620   22.1620   22.0030 N.3    52  LYS52      -0.1245
     11  CA        20.2220   20.7420   22.1300 C.3    52  LYS52       0.1561
     12  C         18.7210   20.5730   21.8860 C.2    52  LYS52       0.2260
     13  O         17.8930   21.2150   22.5300 O.2    52  LYS52      -0.2867
     14  CB        20.6180   20.1600   23.4910 C.3    52  LYS52       0.0271
     15  CG        20.0670   20.8970   24.6640 C.3    52  LYS52       0.0035
     16  CD        20.4140   20.2350   25.9890 C.3    52  LYS52       0.0206
     17  CE        20.0580   21.2190   27.0900 C.3    52  LYS52       0.1093
     18  NZ        20.4250   20.7390   28.4180 N.3    52  LYS52      -0.1314
     19  N         25.6820   20.1860   21.3150 N.3    82  LEU82      -0.1245
     20  CA        25.6160   18.7580   21.6020 C.3    82  LEU82       0.1561
     21  C         25.8430   17.9340   20.3200 C.2    82  LEU82       0.2260
     22  O         25.2410   18.2070   19.2800 O.2    82  LEU82      -0.2867
     23  CB        24.2720   18.3830   22.2290 C.3    82  LEU82       0.0270
     24  CG        24.1380   18.3930   23.7520 C.3    82  LEU82       0.0019
     25  CD1       25.0740   17.3680   24.3660 C.3    82  LEU82       0.0001
     26  CD2       24.4440   19.7740   24.2990 C.3    82  LEU82       0.0001
     27  N         20.6900   13.0010   22.9790 N.3    88  PHE88      -0.1241
     28  CA        20.5520   14.4350   22.7630 C.3    88  PHE88       0.1605
     29  C         20.2390   14.7890   21.3350 C.2    88  PHE88       0.2264
     30  O         20.0430   15.9520   21.0050 O.2    88  PHE88      -0.2867
     31  CB        21.8310   15.1500   23.2070 C.3    88  PHE88       0.0534
     32  CG        22.1360   14.9900   24.6690 C.ar   88  PHE88      -0.0203
     33  CD1       22.8180   13.8780   25.1400 C.ar   88  PHE88      -0.0042
     34  CD2       21.7490   15.9660   25.5770 C.ar   88  PHE88      -0.0042
     35  CE1       23.1130   13.7430   26.4880 C.ar   88  PHE88      -0.0003
     36  CE2       22.0410   15.8440   26.9310 C.ar   88  PHE88      -0.0003
     37  CZ        22.7260   14.7280   27.3890 C.ar   88  PHE88      -0.0000
     38  N         30.0370   19.5900   22.9360 N.3   109  LYS109     -0.1245
     39  CA        29.5140   18.9140   24.1120 C.3   109  LYS109      0.1561
     40  C         29.1620   17.4620   23.7580 C.2   109  LYS109      0.2260
     41  O         28.2210   17.2020   22.9900 O.2   109  LYS109     -0.2867
     42  CB        28.2670   19.6450   24.6070 C.3   109  LYS109      0.0271
     43  CG        27.9150   19.4210   26.0630 C.3   109  LYS109      0.0035
     44  CD        28.5210   20.5220   26.9030 C.3   109  LYS109      0.0206
     45  CE        28.1290   20.3930   28.3540 C.3   109  LYS109      0.1093
     46  NZ        26.6770   20.4620   28.4880 N.3   109  LYS109     -0.1314
     47  N         34.4870   19.1910   33.4440 N.3   158  GLU158     -0.1245
     48  CA        33.2960   19.1790   34.2700 C.3   158  GLU158      0.1567
     49  C         33.3790   18.3050   35.5330 C.2   158  GLU158      0.2260
     50  O         33.7470   17.1190   35.4610 O.2   158  GLU158     -0.2867
     51  CB        32.1180   18.7610   33.3880 C.3   158  GLU158      0.0388
     52  CG        30.7680   18.8550   34.0530 C.3   158  GLU158      0.1160
     53  CD        29.6610   18.4240   33.1290 C.2   158  GLU158      0.3649
     54  OE1       29.3660   19.1920   32.1970 O.co2 158  GLU158     -0.2457
     55  OE2       29.1120   17.3160   33.3280 O.co2 158  GLU158     -0.2457
     56  N         28.9330   21.3700   37.3760 N.3   179  ASN179     -0.1240
     57  CA        27.5960   20.9710   36.9640 C.3   179  ASN179      0.1653
     58  C         26.7040   20.6970   38.1600 C.2   179  ASN179      0.2266
     59  O         26.9940   19.8000   38.9430 O.2   179  ASN179     -0.2867
     60  CB        27.6860   19.7180   36.0810 C.3   179  ASN179      0.1155
     61  CG        26.4270   19.4810   35.2760 C.2   179  ASN179      0.2627
     62  OD1       25.4120   20.1320   35.5000 O.2   179  ASN179     -0.2716
     63  ND2       26.4850   18.5630   34.3260 N.am  179  ASN179     -0.0877
     64  N         23.8090   19.4950   38.0250 N.3   181  ARG181     -0.1245
     65  CA        23.0370   18.2930   37.7660 C.3   181  ARG181      0.1563
     66  C         23.9220   17.0580   37.7790 C.2   181  ARG181      0.2260
     67  O         24.9570   17.0040   37.1070 O.2   181  ARG181     -0.2867
     68  CB        22.3380   18.3640   36.4100 C.3   181  ARG181      0.0307
     69  CG        21.4130   17.1700   36.1960 C.3   181  ARG181      0.0489
     70  CD        20.8320   17.0720   34.8060 C.3   181  ARG181      0.2205
     71  NE        20.2170   18.3110   34.3570 N.pl3 181  ARG181     -0.0865
     72  CZ        18.9830   18.7190   34.6280 C.cat 181  ARG181      0.5346
     73  NH1       18.1740   17.9920   35.4060 N.pl3 181  ARG181      0.1354
     74  NH2       18.5650   19.8710   34.1210 N.pl3 181  ARG181      0.1354
     75  N         24.7140   13.7720   36.4530 N.3   183  LEU183     -0.1245
     76  CA        24.4020   13.0920   35.1930 C.3   183  LEU183      0.1561
     77  C         23.7300   11.7380   35.3680 C.2   183  LEU183      0.2260
     78  O         22.9040   11.3450   34.5640 O.2   183  LEU183     -0.2867
     79  CB        25.6610   12.9010   34.3480 C.3   183  LEU183      0.0270
     80  CG        26.2780   14.1150   33.6670 C.3   183  LEU183      0.0019
     81  CD1       27.5020   13.6450   32.9120 C.3   183  LEU183      0.0001
     82  CD2       25.2790   14.7780   32.7310 C.3   183  LEU183      0.0001
     83  N         27.1490   25.4090   35.3900 N.3   209  GLU209     -0.1231
     84  CA        26.3190   24.7260   34.4040 C.3   209  GLU209      0.1699
     85  C         25.0460   24.1730   35.0270 C.2   209  GLU209      0.2593
     86  O         25.0520   23.7330   36.1860 O.2   209  GLU209     -0.2718
     87  CB        27.0540   23.5210   33.8050 C.3   209  GLU209      0.0402
     88  CG        28.3760   23.7870   33.1180 C.3   209  GLU209      0.1161
     89  CD        28.9620   22.5040   32.5670 C.2   209  GLU209      0.3649
     90  OE1       29.6900   21.8150   33.2960 O.co2 209  GLU209     -0.2457
     91  OE2       28.6670   22.1690   31.4100 O.co2 209  GLU209     -0.2457
     92  N         23.9770   24.1820   34.2280 N.am  210  SER210     -0.1938
     93  CA        22.6650   23.6260   34.5790 C.3   210  SER210      0.2055
     94  C         21.7980   24.3450   35.6060 C.2   210  SER210      0.2644
     95  O         22.2950   24.9300   36.5660 O.2   210  SER210     -0.2714
     96  CB        22.8100   22.1570   35.0120 C.3   210  SER210      0.2130
     97  OG        23.5120   21.3930   34.0490 O.3   210  SER210     -0.2179
     98  N         20.4890   24.2880   35.3710 N.am  211  GLY211     -0.1939
     99  CA        19.5180   24.8690   36.2850 C.3   211  GLY211      0.2014
    100  C         19.3370   26.3670   36.4330 C.2   211  GLY211      0.2638
    101  O         18.6390   26.7870   37.3470 O.2   211  GLY211     -0.2714
    102  N         19.9030   27.1710   35.5400 N.am  212  ILE212     -0.1977
    103  CA        19.7600   28.6250   35.6380 C.3   212  ILE212      0.1596
    104  C         18.5750   29.0750   34.8040 C.2   212  ILE212      0.2287
    105  O         18.5060   28.7830   33.6120 O.2   212  ILE212     -0.2864
    106  CB        21.0300   29.3490   35.1490 C.3   212  ILE212      0.0276
    107  CG1       22.2100   28.9580   36.0350 C.3   212  ILE212      0.0022
    108  CG2       20.8210   30.8750   35.1770 C.3   212  ILE212      0.0022
    109  CD1       23.5560   29.1860   35.3870 C.3   212  ILE212      0.0001
    110  N         26.7480   28.4370   31.6330 N.3   230  LEU230     -0.1231
    111  CA        26.3320   27.6290   30.4900 C.3   230  LEU230      0.1693
    112  C         24.8240   27.4170   30.6810 C.2   230  LEU230      0.2592
    113  O         24.3880   26.8480   31.6890 O.2   230  LEU230     -0.2718
    114  CB        27.1030   26.3050   30.4610 C.3   230  LEU230      0.0284
    115  CG        27.1380   25.5600   29.1240 C.3   230  LEU230      0.0019
    116  CD1       28.2270   24.5130   29.1520 C.3   230  LEU230      0.0001
    117  CD2       25.8050   24.9290   28.8720 C.3   230  LEU230      0.0001
    118  N         24.0340   27.9030   29.7270 N.am  231  ILE231     -0.1966
    119  CA        22.5710   27.8290   29.8200 C.3   231  ILE231      0.1727
    120  C         22.0130   27.1940   28.5540 C.2   231  ILE231      0.2617
    121  O         22.3290   27.6280   27.4510 O.2   231  ILE231     -0.2715
    122  CB        21.9820   29.2630   30.0230 C.3   231  ILE231      0.0290
    123  CG1       22.6070   29.9150   31.2650 C.3   231  ILE231      0.0022
    124  CG2       20.4740   29.2120   30.1650 C.3   231  ILE231      0.0023
    125  CD1       22.0190   31.2670   31.6110 C.3   231  ILE231      0.0001
    126  N         21.1700   26.1730   28.7110 N.am  232  GLY232     -0.1940
    127  CA        20.6240   25.4920   27.5620 C.3   232  GLY232      0.2014
    128  C         19.1280   25.6080   27.3780 C.2   232  GLY232      0.2640
    129  O         18.6560   26.4430   26.6030 O.2   232  GLY232     -0.2714
    130  N         18.3810   24.8160   28.1370 N.am  233  SER233     -0.1935
    131  CA        16.9290   24.7700   28.0380 C.3   233  SER233      0.2055
    132  C         16.1500   26.0790   28.0080 C.2   233  SER233      0.2643
    133  O         15.3320   26.2700   27.1170 O.2   233  SER233     -0.2714
    134  CB        16.3560   23.8220   29.0920 C.3   233  SER233      0.2130
    135  OG        16.6620   22.4730   28.7480 O.3   233  SER233     -0.2179
    136  N         16.3900   27.0020   28.9340 N.am  234  SER234     -0.1949
    137  CA        15.6240   28.2360   28.8820 C.3   234  SER234      0.1924
    138  C         15.8650   29.0570   27.6290 C.2   234  SER234      0.2314
    139  O         14.9410   29.7000   27.1460 O.2   234  SER234     -0.2863
    140  CB        15.7970   29.0810   30.1440 C.3   234  SER234      0.2116
    141  OG        17.1280   29.0670   30.6000 O.3   234  SER234     -0.2180
@<TRIPOS>BOND
     1    22    21    2
     2    21    20    1
     3    30    29    2
     4    19    20    1
     5    29    28    1
     6    20    23    1
     7    12    11    1
     8    12    13    2
     9    10    11    1
    10    11    14    1
    11    23    24    1
    12    28    27    1
    13    28    31    1
    14    38    39    1
    15    41    40    2
    16    31    32    1
    17    14    15    1
    18     3     4    2
    19     3     2    1
    20    24    26    1
    21    24    25    1
    22    40    39    1
    23    39    42    1
    24     2     1    1
    25     2     5    1
    26    42    43    1
    27    15    16    1
    28    32    33   ar
    29    32    34   ar
    30    33    35   ar
    31     6     5    1
    32     6     7    1
    33    34    36   ar
    34    16    17    1
    35    43    44    1
    36    35    37   ar
    37     7     8   ar
    38     7     9   ar
    39   129   128    2
    40    44    45    1
    41    36    37   ar
    42    17    18    1
    43   133   132    2
    44   139   138    2
    45   128   127    1
    46   128   130   am
    47   121   120    2
    48   127   126    1
    49   138   137    1
    50   132   131    1
    51   132   136   am
    52   131   130    1
    53   131   134    1
    54    45    46    1
    55   120   126   am
    56   120   119    1
    57   135   134    1
    58   117   115    1
    59   137   136    1
    60   137   140    1
    61   115   116    1
    62   115   114    1
    63   118   119    1
    64   118   112   am
    65   119   122    1
    66   122   124    1
    67   122   123    1
    68   140   141    1
    69   114   111    1
    70   111   112    1
    71   111   110    1
    72   112   113    2
    73   123   125    1
    74    91    89   ar
    75    54    53   ar
    76    89    88    1
    77    89    90   ar
    78    82    80    1
    79    81    80    1
    80    88    87    1
    81    53    55   ar
    82    53    52    1
    83    51    52    1
    84    51    48    1
    85    47    48    1
    86   105   104    2
    87    80    79    1
    88    87    84    1
    89    97    96    1
    90    74    72    1
    91    92    93    1
    92    92    85   am
    93    48    49    1
    94    63    61   am
    95    79    76    1
    96    71    72    2
    97    71    70    1
    98    84    85    1
    99    84    83    1
   100    78    77    2
   101    93    96    1
   102    93    94    1
   103    72    73    1
   104   104   103    1
   105    70    69    1
   106    85    86    2
   107   106   108    1
   108   106   103    1
   109   106   107    1
   110    76    77    1
   111    76    75    1
   112    61    62    2
   113    61    60    1
   114    98    94   am
   115    98    99    1
   116   109   107    1
   117    50    49    2
   118   102   103    1
   119   102   100   am
   120    94    95    2
   121    60    57    1
   122    69    68    1
   123    99   100    1
   124    68    65    1
   125   100   101    2
   126    57    56    1
   127    57    58    1
   128    67    66    2
   129    65    66    1
   130    65    64    1
   131    58    59    2
