@<TRIPOS>MOLECULE
tmp/1jumC00.pdb
 159 152 0 0 0
SMALL
GASTEIGER

@<TRIPOS>ATOM
      1  N        119.0000   55.7770   86.8670 N.3    11  LYS11      -0.1245
      2  CA       118.2850   55.3040   88.0560 C.3    11  LYS11       0.1561
      3  C        118.3470   56.4030   89.1160 C.2    11  LYS11       0.2260
      4  O        117.3140   56.8330   89.6450 O.2    11  LYS11      -0.2867
      5  CB       118.9050   54.0010   88.5770 C.3    11  LYS11       0.0271
      6  CG       118.2930   53.4900   89.8750 C.3    11  LYS11       0.0035
      7  CD       118.9600   52.1850   90.3820 C.3    11  LYS11       0.0206
      8  CE       118.4560   51.7680   91.8070 C.3    11  LYS11       0.1093
      9  NZ       119.0420   50.4690   92.3190 N.3    11  LYS11      -0.1314
     10  N        113.6080   49.1740   85.0350 N.3    53  LEU53      -0.1245
     11  CA       112.5750   48.3640   85.6620 C.3    53  LEU53       0.1561
     12  C        112.7530   46.8630   85.4940 C.2    53  LEU53       0.2260
     13  O        112.2540   46.0890   86.2930 O.2    53  LEU53      -0.2867
     14  CB       111.2100   48.7900   85.1390 C.3    53  LEU53       0.0270
     15  CG       110.4850   49.8910   85.9160 C.3    53  LEU53       0.0019
     16  CD1      111.3800   51.0610   86.2120 C.3    53  LEU53       0.0001
     17  CD2      109.3060   50.3450   85.1020 C.3    53  LEU53       0.0001
     18  N        115.7360   46.0840   87.8860 N.3    56  GLU56      -0.1231
     19  CA       115.3750   46.1370   89.2880 C.3    56  GLU56       0.1699
     20  C        114.7180   44.7980   89.5750 C.2    56  GLU56       0.2592
     21  O        115.0780   44.0610   90.5020 O.2    56  GLU56      -0.2718
     22  CB       114.3600   47.2440   89.5090 C.3    56  GLU56       0.0402
     23  CG       114.9620   48.5930   89.5040 C.3    56  GLU56       0.1161
     24  CD       116.0200   48.7000   90.5510 C.2    56  GLU56       0.3649
     25  OE1      115.7240   48.3700   91.7130 O.co2  56  GLU56      -0.2457
     26  OE2      117.1470   49.1060   90.2120 O.co2  56  GLU56      -0.2457
     27  N        113.7320   44.5180   88.7370 N.am   57  GLU57      -0.1979
     28  CA       112.9390   43.3160   88.7890 C.3    57  GLU57       0.1602
     29  C        113.8260   42.0980   88.7180 C.2    57  GLU57       0.2287
     30  O        113.4520   41.0280   89.1450 O.2    57  GLU57      -0.2864
     31  CB       111.9630   43.3530   87.6220 C.3    57  GLU57       0.0415
     32  CG       111.4160   42.0200   87.1730 C.3    57  GLU57       0.1163
     33  CD       110.4360   41.4170   88.1600 C.2    57  GLU57       0.3649
     34  OE1      109.5570   42.1760   88.7130 O.co2  57  GLU57      -0.2457
     35  OE2      110.5590   40.1700   88.3480 O.co2  57  GLU57      -0.2457
     36  N        116.8810   42.0980   90.0960 N.3    59  LYS59      -0.1231
     37  CA       117.4630   42.0990   91.4300 C.3    59  LYS59       0.1693
     38  C        116.4490   41.5110   92.3890 C.2    59  LYS59       0.2592
     39  O        116.7350   40.5580   93.0910 O.2    59  LYS59      -0.2718
     40  CB       117.7800   43.5170   91.8800 C.3    59  LYS59       0.0285
     41  CG       118.7780   44.2690   90.9990 C.3    59  LYS59       0.0035
     42  CD       120.2060   43.6950   91.0670 C.3    59  LYS59       0.0206
     43  CE       121.2020   44.5550   90.2770 C.3    59  LYS59       0.1093
     44  NZ       121.1980   45.9750   90.7410 N.3    59  LYS59      -0.1314
     45  N        115.2590   42.0930   92.4240 N.am   60  TRP60      -0.1976
     46  CA       114.1930   41.5980   93.2890 C.3    60  TRP60       0.1640
     47  C        114.0560   40.0880   93.2160 C.2    60  TRP60       0.2290
     48  O        114.0160   39.4160   94.2320 O.2    60  TRP60      -0.2864
     49  CB       112.8630   42.2230   92.8900 C.3    60  TRP60       0.0576
     50  CG       111.6760   41.5040   93.4800 C.ar   60  TRP60       0.0006
     51  CD1      110.8590   40.5820   92.8650 C.ar   60  TRP60       0.0946
     52  CD2      111.1980   41.6280   94.8180 C.ar   60  TRP60       0.0152
     53  NE1      109.9020   40.1300   93.7490 N.ar   60  TRP60      -0.2442
     54  CE2      110.0880   40.7560   94.9530 C.ar   60  TRP60       0.0810
     55  CE3      111.6030   42.3900   95.9200 C.ar   60  TRP60       0.0012
     56  CZ2      109.3860   40.6310   96.1400 C.ar   60  TRP60       0.0191
     57  CZ3      110.9080   42.2630   97.0980 C.ar   60  TRP60       0.0001
     58  CH2      109.8090   41.3900   97.2030 C.ar   60  TRP60       0.0015
     59  N        116.9240   38.8450   94.9780 N.3    63  GLN63      -0.1245
     60  CA       116.7880   39.1420   96.3960 C.3    63  GLN63       0.1566
     61  C        115.9690   38.0160   97.0520 C.2    63  GLN63       0.2260
     62  O        116.4430   37.3360   97.9640 O.2    63  GLN63      -0.2867
     63  CB       116.0770   40.5000   96.5320 C.3    63  GLN63       0.0367
     64  CG       115.2960   40.7420   97.8130 C.3    63  GLN63       0.0905
     65  CD       116.1200   40.4060   99.0160 C.2    63  GLN63       0.2608
     66  OE1      117.3400   40.5920   99.0000 O.2    63  GLN63      -0.2717
     67  NE2      115.4730   39.9080  100.0770 N.am   63  GLN63      -0.0878
     68  N        106.7170   42.0670  100.0090 N.3    85  SER85      -0.1217
     69  CA       106.2230   43.0160   99.0220 C.3    85  SER85       0.1889
     70  C        105.7030   44.2710   99.7150 C.2    85  SER85       0.2288
     71  O        105.8970   45.3730   99.2350 O.2    85  SER85      -0.2866
     72  CB       105.1010   42.3750   98.2070 C.3    85  SER85       0.2089
     73  OG       105.5300   41.1360   97.6640 O.3    85  SER85      -0.2183
     74  N        109.1650   45.9030  102.0350 N.3    88  THR88      -0.1203
     75  CA       110.1290   46.5030  101.1030 C.3    88  THR88       0.1994
     76  C        109.6470   47.5280  100.1000 C.2    88  THR88       0.2617
     77  O        110.3920   47.8540   99.1910 O.2    88  THR88      -0.2717
     78  CB       110.8620   45.4870  100.2490 C.3    88  THR88       0.1784
     79  OG1      109.9130   44.8000   99.4340 O.3    88  THR88      -0.2211
     80  CG2      111.6320   44.5360  101.0960 C.3    88  THR88       0.0376
     81  N        108.4320   48.0320  100.2140 N.am   89  GLU89      -0.1979
     82  CA       108.0250   49.0340   99.2530 C.3    89  GLU89       0.1602
     83  C        108.1660   50.3910   99.9230 C.2    89  GLU89       0.2287
     84  O        108.4670   51.3770   99.2730 O.2    89  GLU89      -0.2864
     85  CB       106.5910   48.8010   98.8170 C.3    89  GLU89       0.0415
     86  CG       105.5940   49.6200   99.6070 C.3    89  GLU89       0.1163
     87  CD       105.2140   50.9020   98.8960 C.2    89  GLU89       0.3649
     88  OE1      104.5790   51.7700   99.5400 O.co2  89  GLU89      -0.2457
     89  OE2      105.5370   51.0320   97.6910 O.co2  89  GLU89      -0.2457
     90  N        110.4490   51.6540  101.9240 N.3    91  TYR91      -0.1227
     91  CA       111.7780   52.1830  101.7080 C.3    91  TYR91       0.1736
     92  C        112.4290   51.7740  100.3690 C.2    91  TYR91       0.2595
     93  O        113.5850   51.3410  100.3160 O.2    91  TYR91      -0.2718
     94  CB       112.6420   51.7660  102.8880 C.3    91  TYR91       0.0548
     95  CG       112.8360   50.2760  103.0240 C.ar   91  TYR91      -0.0200
     96  CD1      113.9310   49.6440  102.4340 C.ar   91  TYR91      -0.0009
     97  CD2      111.9420   49.4990  103.7600 C.ar   91  TYR91      -0.0009
     98  CE1      114.1380   48.2830  102.5700 C.ar   91  TYR91       0.0417
     99  CE2      112.1400   48.1230  103.9080 C.ar   91  TYR91       0.0417
    100  CZ       113.2420   47.5200  103.3070 C.ar   91  TYR91       0.1957
    101  OH       113.4490   46.1570  103.4160 O.3    91  TYR91      -0.2866
    102  N        111.6730   51.9100   99.2860 N.am   92  TYR92      -0.1976
    103  CA       112.1650   51.5940   97.9580 C.3    92  TYR92       0.1639
    104  C        111.8690   52.8360   97.1680 C.2    92  TYR92       0.2290
    105  O        110.7380   53.0660   96.7480 O.2    92  TYR92      -0.2864
    106  CB       111.4190   50.4280   97.3680 C.3    92  TYR92       0.0560
    107  CG       111.8180   50.1520   95.9570 C.ar   92  TYR92      -0.0198
    108  CD1      111.0040   50.5380   94.8800 C.ar   92  TYR92      -0.0009
    109  CD2      113.0030   49.4850   95.6870 C.ar   92  TYR92      -0.0009
    110  CE1      111.3740   50.2420   93.5530 C.ar   92  TYR92       0.0417
    111  CE2      113.3870   49.1910   94.3740 C.ar   92  TYR92       0.0417
    112  CZ       112.5780   49.5570   93.3070 C.ar   92  TYR92       0.1957
    113  OH       112.9730   49.1900   92.0270 O.3    92  TYR92      -0.2866
    114  N        110.0400   53.5710   93.5240 N.3    95  GLN95      -0.1245
    115  CA       108.5890   53.5720   93.6350 C.3    95  GLN95       0.1566
    116  C        107.8430   54.8400   93.2090 C.2    95  GLN95       0.2260
    117  O        106.7680   54.7510   92.6470 O.2    95  GLN95      -0.2867
    118  CB       108.1870   53.2230   95.0540 C.3    95  GLN95       0.0367
    119  CG       106.7300   52.8820   95.1520 C.3    95  GLN95       0.0905
    120  CD       106.3220   51.8490   94.1180 C.2    95  GLN95       0.2608
    121  OE1      106.8250   50.7160   94.1020 O.2    95  GLN95      -0.2717
    122  NE2      105.4080   52.2380   93.2430 N.am   95  GLN95      -0.0878
    123  N        106.5100   42.5920   81.7810 N.3   118  LEU118     -0.1231
    124  CA       107.2720   42.7430   83.0060 C.3   118  LEU118      0.1693
    125  C        106.4470   42.3740   84.2300 C.2   118  LEU118      0.2591
    126  O        106.9350   41.7320   85.1460 O.2   118  LEU118     -0.2718
    127  CB       107.7240   44.1840   83.1120 C.3   118  LEU118      0.0284
    128  CG       108.5410   44.5130   84.3340 C.3   118  LEU118      0.0019
    129  CD1      109.8170   43.7100   84.2800 C.3   118  LEU118      0.0001
    130  CD2      108.8160   46.0000   84.3560 C.3   118  LEU118      0.0001
    131  N        105.1940   42.8110   84.2320 N.am  119  GLU119     -0.1979
    132  CA       104.2510   42.5440   85.3090 C.3   119  GLU119      0.1602
    133  C        104.0960   41.0320   85.4870 C.2   119  GLU119      0.2287
    134  O        103.6740   40.5490   86.5400 O.2   119  GLU119     -0.2864
    135  CB       102.9040   43.2060   84.9640 C.3   119  GLU119      0.0415
    136  CG       101.6850   42.8560   85.8540 C.3   119  GLU119      0.1163
    137  CD       101.7620   43.4130   87.2910 C.2   119  GLU119      0.3649
    138  OE1      102.3500   44.5180   87.4670 O.co2 119  GLU119     -0.2457
    139  OE2      101.2170   42.7590   88.2370 O.co2 119  GLU119     -0.2457
    140  N        106.7730   39.4970   87.8740 N.3   122  TYR122     -0.1241
    141  CA       106.4090   39.6460   89.2750 C.3   122  TYR122      0.1605
    142  C        105.2520   38.6630   89.5970 C.2   122  TYR122      0.2264
    143  O        105.0670   38.2510   90.7510 O.2   122  TYR122     -0.2867
    144  CB       106.0430   41.1200   89.5640 C.3   122  TYR122      0.0534
    145  CG       105.3710   41.3780   90.9260 C.ar  122  TYR122     -0.0201
    146  CD1      106.1230   41.6740   92.1000 C.ar  122  TYR122     -0.0009
    147  CD2      103.9610   41.3180   91.0500 C.ar  122  TYR122     -0.0009
    148  CE1      105.4640   41.9060   93.3660 C.ar  122  TYR122      0.0417
    149  CE2      103.3040   41.5420   92.2950 C.ar  122  TYR122      0.0417
    150  CZ       104.0510   41.8330   93.4350 C.ar  122  TYR122      0.1957
    151  OH       103.3470   42.0410   94.6050 O.3   122  TYR122     -0.2866
    152  N         98.7820   43.3320   95.5020 N.3   156  ASN156     -0.1240
    153  CA        99.2010   44.6060   94.9670 C.3   156  ASN156      0.1653
    154  C         98.3890   45.8270   95.3430 C.2   156  ASN156      0.2266
    155  O         98.9300   46.9140   95.4750 O.2   156  ASN156     -0.2867
    156  CB        99.2440   44.5070   93.4630 C.3   156  ASN156      0.1155
    157  CG       100.4200   45.2050   92.9010 C.2   156  ASN156      0.2627
    158  OD1      101.5110   45.1070   93.4790 O.2   156  ASN156     -0.2716
    159  ND2      100.2410   45.9090   91.7680 N.am  156  ASN156     -0.0877
@<TRIPOS>BOND
     1   123   124    1
     2   124   127    1
     3   124   125    1
     4   127   128    1
     5   125   131   am
     6   125   126    2
     7   131   132    1
     8   129   128    1
     9   128   130    1
    10   135   132    1
    11   135   136    1
    12    10    11    1
    13    17    15    1
    14    14    11    1
    15    14    15    1
    16   132   133    1
    17   133   134    2
    18    12    11    1
    19    12    13    2
    20   136   137    1
    21    15    16    1
    22     1     2    1
    23    32    31    1
    24    32    33    1
    25   137   138   ar
    26   137   139   ar
    27    31    28    1
    28   140   141    1
    29    18    19    1
    30     2     5    1
    31     2     3    1
    32    33    35   ar
    33    33    34   ar
    34     5     6    1
    35    29    28    1
    36    29    30    2
    37    27    28    1
    38    27    20   am
    39     3     4    2
    40   141   144    1
    41   141   142    1
    42    19    22    1
    43    19    20    1
    44    23    22    1
    45    23    24    1
    46   144   145    1
    47    20    21    2
    48   142   143    2
    49     6     7    1
    50    36    37    1
    51    26    24   ar
    52    43    44    1
    53    43    42    1
    54     7     8    1
    55    24    25   ar
    56   145   147   ar
    57   145   146   ar
    58    41    42    1
    59    41    40    1
    60   147   149   ar
    61    37    40    1
    62    37    38    1
    63   159   157   am
    64     8     9    1
    65   113   112    1
    66   146   148   ar
    67   149   150   ar
    68    38    45   am
    69    38    39    2
    70    45    46    1
    71   117   116    2
    72    51    50   ar
    73    51    53   ar
    74    49    46    1
    75    49    50    1
    76   157   156    1
    77   157   158    2
    78   116   115    1
    79    47    46    1
    80    47    48    2
    81   122   120   am
    82   112   110   ar
    83   112   111   ar
    84   148   150   ar
    85   150   151    1
    86   156   153    1
    87    50    52   ar
    88   114   115    1
    89   110   108   ar
    90   115   118    1
    91    53    54   ar
    92   121   120    2
    93   120   119    1
    94   111   109   ar
    95    52    54   ar
    96    52    55   ar
    97   108   107   ar
    98    54    56   ar
    99   153   154    1
   100   153   152    1
   101    59    60    1
   102   118   119    1
   103   154   155    2
   104   109   107   ar
   105    55    57   ar
   106   107   106    1
   107    56    58   ar
   108    60    63    1
   109    60    61    1
   110    63    64    1
   111   105   104    2
   112    61    62    2
   113    57    58   ar
   114   104   103    1
   115   106   103    1
   116    73    72    1
   117    89    87   ar
   118    64    65    1
   119   103   102    1
   120    72    69    1
   121    85    82    1
   122    85    86    1
   123    87    88   ar
   124    87    86    1
   125    66    65    2
   126    65    67   am
   127    69    70    1
   128    69    68    1
   129    77    76    2
   130    71    70    2
   131    82    83    1
   132    82    81    1
   133    84    83    2
   134   102    92   am
   135    79    78    1
   136    76    81   am
   137    76    75    1
   138    78    80    1
   139    78    75    1
   140    93    92    2
   141    92    91    1
   142    75    74    1
   143    91    90    1
   144    91    94    1
   145    96    98   ar
   146    96    95   ar
   147    98   100   ar
   148    94    95    1
   149    95    97   ar
   150   100   101    1
   151   100    99   ar
   152    97    99   ar
