@<TRIPOS>MOLECULE
tmp/1jupC00.pdb
 158 150 0 0 0
SMALL
GASTEIGER

@<TRIPOS>ATOM
      1  N        115.0920   42.0140   92.4750 N.3    60  TRP60      -0.1241
      2  CA       114.0260   41.5930   93.3880 C.3    60  TRP60       0.1605
      3  C        113.7990   40.0950   93.3250 C.2    60  TRP60       0.2264
      4  O        113.7420   39.4400   94.3540 O.2    60  TRP60      -0.2867
      5  CB       112.7090   42.3000   93.0590 C.3    60  TRP60       0.0550
      6  CG       111.4710   41.6270   93.6700 C.ar   60  TRP60       0.0003
      7  CD1      110.6430   40.7030   93.0730 C.ar   60  TRP60       0.0946
      8  CD2      110.9940   41.7700   95.0030 C.ar   60  TRP60       0.0152
      9  NE1      109.6890   40.2640   93.9610 N.ar   60  TRP60      -0.2442
     10  CE2      109.8850   40.9040   95.1520 C.ar   60  TRP60       0.0810
     11  CE3      111.3970   42.5400   96.0870 C.ar   60  TRP60       0.0012
     12  CZ2      109.1870   40.7930   96.3370 C.ar   60  TRP60       0.0191
     13  CZ3      110.7070   42.4300   97.2650 C.ar   60  TRP60       0.0001
     14  CH2      109.6090   41.5620   97.3870 C.ar   60  TRP60       0.0015
     15  N        106.5840   42.0890   99.9680 N.3    85  SER85      -0.1217
     16  CA       106.0990   43.0150   98.9670 C.3    85  SER85       0.1889
     17  C        105.5410   44.2080   99.6760 C.2    85  SER85       0.2288
     18  O        105.6650   45.3040   99.1930 O.2    85  SER85      -0.2866
     19  CB       104.9900   42.3780   98.1460 C.3    85  SER85       0.2089
     20  OG       105.4250   41.1730   97.5350 O.3    85  SER85      -0.2183
     21  N        109.0020   46.0860  101.6580 N.3    88  THR88      -0.1203
     22  CA       109.8560   46.7980  100.7260 C.3    88  THR88       0.1994
     23  C        109.2380   47.8820   99.8250 C.2    88  THR88       0.2617
     24  O        109.9230   48.8150   99.4370 O.2    88  THR88      -0.2717
     25  CB       110.6590   45.8310   99.8430 C.3    88  THR88       0.1784
     26  OG1      109.8000   45.2190   98.9000 O.3    88  THR88      -0.2211
     27  CG2      111.2930   44.7590  100.6710 C.3    88  THR88       0.0376
     28  N        107.9680   47.8260   99.4710 N.am   89  GLU89      -0.1979
     29  CA       107.4850   48.9010   98.6000 C.3    89  GLU89       0.1602
     30  C        107.4090   50.1840   99.3980 C.2    89  GLU89       0.2287
     31  O        107.1430   51.2290   98.8610 O.2    89  GLU89      -0.2864
     32  CB       106.1090   48.5530   97.9790 C.3    89  GLU89       0.0415
     33  CG       106.1300   48.3810   96.4240 C.3    89  GLU89       0.1163
     34  CD       105.1200   47.3320   95.8340 C.2    89  GLU89       0.3649
     35  OE1      105.2200   46.1160   96.1920 O.co2  89  GLU89      -0.2457
     36  OE2      104.2510   47.7260   94.9840 O.co2  89  GLU89      -0.2457
     37  N        111.0760   51.8790   99.0350 N.3    92  TYR92      -0.1241
     38  CA       111.6170   51.7380   97.6810 C.3    92  TYR92       0.1605
     39  C        111.6650   53.0930   97.0140 C.2    92  TYR92       0.2264
     40  O        110.6240   53.6840   96.6950 O.2    92  TYR92      -0.2867
     41  CB       110.7450   50.8180   96.8540 C.3    92  TYR92       0.0534
     42  CG       111.3500   50.4840   95.5250 C.ar   92  TYR92      -0.0201
     43  CD1      110.6970   50.7920   94.3300 C.ar   92  TYR92      -0.0009
     44  CD2      112.5760   49.8570   95.4610 C.ar   92  TYR92      -0.0009
     45  CE1      111.2710   50.4790   93.0990 C.ar   92  TYR92       0.0417
     46  CE2      113.1600   49.5320   94.2430 C.ar   92  TYR92       0.0417
     47  CZ       112.5180   49.8440   93.0640 C.ar   92  TYR92       0.1957
     48  OH       113.1680   49.5370   91.8820 O.3    92  TYR92      -0.2866
     49  N        109.8010   53.8140   93.5820 N.3    95  GLN95      -0.1245
     50  CA       108.3410   53.7420   93.6480 C.3    95  GLN95       0.1566
     51  C        107.5940   54.9570   93.1720 C.2    95  GLN95       0.2260
     52  O        106.5840   54.8380   92.4950 O.2    95  GLN95      -0.2867
     53  CB       107.8720   53.3850   95.0520 C.3    95  GLN95       0.0367
     54  CG       106.4020   52.9170   95.1070 C.3    95  GLN95       0.0905
     55  CD       106.1200   51.5980   94.3550 C.2    95  GLN95       0.2608
     56  OE1      106.8090   50.5930   94.5390 O.2    95  GLN95      -0.2717
     57  NE2      105.0820   51.6060   93.5160 N.am   95  GLN95      -0.0878
     58  N        107.6660   55.2630   89.3770 N.3    98  ILE98      -0.1231
     59  CA       106.9710   54.2030   88.6630 C.3    98  ILE98       0.1692
     60  C        105.5570   54.7470   88.5460 C.2    98  ILE98       0.2591
     61  O        105.0190   54.8820   87.4680 O.2    98  ILE98      -0.2718
     62  CB       106.9310   52.8710   89.4540 C.3    98  ILE98       0.0266
     63  CG1      108.2480   52.1310   89.3210 C.3    98  ILE98       0.0019
     64  CG2      105.8350   51.9610   88.9250 C.3    98  ILE98       0.0020
     65  CD1      109.2910   52.6510   90.1990 C.3    98  ILE98       0.0001
     66  N        104.9620   55.0920   89.6740 N.am   99  ILE99      -0.1980
     67  CA       103.6140   55.6330   89.6800 C.3    99  ILE99       0.1595
     68  C        103.4780   56.7250   88.6390 C.2    99  ILE99       0.2287
     69  O        102.5070   56.7560   87.9010 O.2    99  ILE99      -0.2864
     70  CB       103.2670   56.2370   91.0340 C.3    99  ILE99       0.0276
     71  CG1      103.2090   55.1440   92.0810 C.3    99  ILE99       0.0022
     72  CG2      101.9470   56.9480   90.9700 C.3    99  ILE99       0.0022
     73  CD1      102.8690   55.6680   93.4140 C.3    99  ILE99       0.0001
     74  N        103.6140   54.9010   85.1540 N.3   102  TYR102     -0.1241
     75  CA       102.3910   54.1220   85.0150 C.3   102  TYR102      0.1605
     76  C        101.1270   54.9090   84.7630 C.2   102  TYR102      0.2264
     77  O        100.3420   54.5260   83.9250 O.2   102  TYR102     -0.2867
     78  CB       102.1720   53.2510   86.2400 C.3   102  TYR102      0.0534
     79  CG       100.9740   52.3360   86.1360 C.ar  102  TYR102     -0.0201
     80  CD1      100.9000   51.3580   85.1450 C.ar  102  TYR102     -0.0009
     81  CD2       99.9380   52.4050   87.0620 C.ar  102  TYR102     -0.0009
     82  CE1       99.8270   50.4650   85.0850 C.ar  102  TYR102      0.0417
     83  CE2       98.8650   51.5190   87.0090 C.ar  102  TYR102      0.0417
     84  CZ        98.8210   50.5520   86.0230 C.ar  102  TYR102      0.1957
     85  OH        97.7850   49.6530   85.9990 O.3   102  TYR102     -0.2866
     86  N        103.1310   44.7830   80.9000 N.3   116  ASN116     -0.1240
     87  CA       102.6390   43.4560   81.2510 C.3   116  ASN116      0.1653
     88  C        103.6700   42.3760   81.2020 C.2   116  ASN116      0.2266
     89  O        103.6990   41.5120   82.0660 O.2   116  ASN116     -0.2867
     90  CB       101.4930   43.0370   80.3560 C.3   116  ASN116      0.1155
     91  CG       100.2410   43.7890   80.6640 C.2   116  ASN116      0.2627
     92  OD1      100.1310   44.9780   80.3600 O.2   116  ASN116     -0.2716
     93  ND2       99.2870   43.1160   81.3010 N.am  116  ASN116     -0.0877
     94  N        104.9880   42.6820   84.3780 N.3   119  GLU119     -0.1231
     95  CA       104.0780   42.3660   85.4730 C.3   119  GLU119      0.1699
     96  C        103.9690   40.8760   85.5830 C.2   119  GLU119      0.2592
     97  O        103.4020   40.3570   86.5380 O.2   119  GLU119     -0.2718
     98  CB       102.6860   42.9170   85.2200 C.3   119  GLU119      0.0402
     99  CG       102.5070   44.3340   85.5930 C.3   119  GLU119      0.1161
    100  CD       101.0740   44.8260   85.3840 C.2   119  GLU119      0.3649
    101  OE1      100.5630   44.7660   84.2390 O.co2 119  GLU119     -0.2457
    102  OE2      100.4550   45.2860   86.3730 O.co2 119  GLU119     -0.2457
    103  N        104.4990   40.1800   84.5940 N.am  120  ASN120     -0.1974
    104  CA       104.4320   38.7470   84.6140 C.3   120  ASN120      0.1688
    105  C        105.5570   38.1240   85.3720 C.2   120  ASN120      0.2292
    106  O        105.3660   37.1210   86.0570 O.2   120  ASN120     -0.2864
    107  CB       104.4380   38.2290   83.2180 C.3   120  ASN120      0.1181
    108  CG       103.1580   38.4920   82.5380 C.2   120  ASN120      0.2629
    109  OD1      103.0380   38.3360   81.3260 O.2   120  ASN120     -0.2716
    110  ND2      102.1630   38.8880   83.3120 N.am  120  ASN120     -0.0877
    111  N        106.7840   39.3430   87.7660 N.3   122  TYR122     -0.1227
    112  CA       106.4470   39.5250   89.1640 C.3   122  TYR122      0.1736
    113  C        105.3880   38.4680   89.5050 C.2   122  TYR122      0.2595
    114  O        105.3450   37.9910   90.6300 O.2   122  TYR122     -0.2718
    115  CB       105.9190   40.9550   89.4750 C.3   122  TYR122      0.0548
    116  CG       106.9690   42.0650   89.7780 C.ar  122  TYR122     -0.0200
    117  CD1      107.4230   42.9670   88.7730 C.ar  122  TYR122     -0.0009
    118  CD2      107.4440   42.2790   91.0860 C.ar  122  TYR122     -0.0009
    119  CE1      108.3290   44.0780   89.0800 C.ar  122  TYR122      0.0417
    120  CE2      108.3480   43.3810   91.4010 C.ar  122  TYR122      0.0417
    121  CZ       108.7780   44.2760   90.3990 C.ar  122  TYR122      0.1957
    122  OH       109.5910   45.3640   90.7410 O.3   122  TYR122     -0.2866
    123  N        104.5640   38.0650   88.5400 N.am  123  ILE123     -0.1980
    124  CA       103.5170   37.0690   88.8110 C.3   123  ILE123      0.1595
    125  C        104.0010   35.6290   88.9010 C.2   123  ILE123      0.2287
    126  O        103.3680   34.7930   89.5330 O.2   123  ILE123     -0.2864
    127  CB       102.3740   37.1150   87.7440 C.3   123  ILE123      0.0276
    128  CG1      101.5880   38.4240   87.8420 C.3   123  ILE123      0.0022
    129  CG2      101.4220   35.9620   87.9490 C.3   123  ILE123      0.0022
    130  CD1      100.4990   38.5540   86.8020 C.3   123  ILE123      0.0001
    131  N         98.4110   38.0230   92.7210 N.3   152  ALA152     -0.1231
    132  CA        99.2980   39.1440   92.4460 C.3   152  ALA152      0.1694
    133  C         98.5930   40.4990   92.4000 C.2   152  ALA152      0.2592
    134  O         99.1750   41.5540   92.7380 O.2   152  ALA152     -0.2718
    135  CB       100.0100   38.9010   91.1730 C.3   152  ALA152      0.0304
    136  N         97.3300   40.4690   91.9900 N.am  153  ASN153     -0.1974
    137  CA        96.5450   41.6870   91.9020 C.3   153  ASN153      0.1688
    138  C         95.8510   42.0610   93.1920 C.2   153  ASN153      0.2292
    139  O         95.6750   43.2340   93.4560 O.2   153  ASN153     -0.2864
    140  CB        95.5220   41.5770   90.7810 C.3   153  ASN153      0.1181
    141  CG        96.1230   41.8530   89.4350 C.2   153  ASN153      0.2629
    142  OD1       96.4730   42.9950   89.1320 O.2   153  ASN153     -0.2716
    143  ND2       96.2760   40.8120   88.6180 N.am  153  ASN153     -0.0877
    144  N         98.8440   43.3630   95.4090 N.3   156  ASN156     -0.1240
    145  CA        99.3620   44.6690   95.0770 C.3   156  ASN156      0.1653
    146  C         98.3570   45.8120   95.2920 C.2   156  ASN156      0.2266
    147  O         98.7160   46.9910   95.2910 O.2   156  ASN156     -0.2867
    148  CB        99.9020   44.6660   93.6470 C.3   156  ASN156      0.1155
    149  CG       101.4200   44.6300   93.6070 C.2   156  ASN156      0.2627
    150  OD1      102.0250   43.5550   93.6160 O.2   156  ASN156     -0.2716
    151  ND2      102.0480   45.8180   93.5910 N.am  156  ASN156     -0.0877
    152  N         99.2340   49.1310   97.4100 N.3   160  THR160     -0.1218
    153  CA        98.9080   50.4160   96.8330 C.3   160  THR160      0.1862
    154  C         97.8220   51.3110   97.4520 C.2   160  THR160      0.2287
    155  O         98.0120   52.5250   97.5060 O.2   160  THR160     -0.2866
    156  CB        98.5610   50.2260   95.3830 C.3   160  THR160      0.1770
    157  OG1       99.6720   49.6110   94.7130 O.3   160  THR160     -0.2211
    158  CG2       98.2520   51.5440   94.7540 C.3   160  THR160      0.0375
@<TRIPOS>BOND
     1    90    91    1
     2    90    87    1
     3    92    91    2
     4    91    93   am
     5    86    87    1
     6    88    87    1
     7    88    89    2
     8   109   108    2
     9   108   107    1
    10   108   110   am
    11   107   104    1
    12    77    76    2
    13   101   100   ar
    14    94    95    1
    15   103   104    1
    16   103    96   am
    17   104   105    1
    18    76    75    1
    19    75    74    1
    20    75    78    1
    21    82    80   ar
    22    82    84   ar
    23    80    79   ar
    24    98    95    1
    25    98    99    1
    26   105   106    2
    27   100    99    1
    28   100   102   ar
    29    95    96    1
    30    96    97    2
    31    85    84    1
    32    84    83   ar
    33    79    78    1
    34    79    81   ar
    35   130   128    1
    36    83    81   ar
    37    61    60    2
    38   127   128    1
    39   127   129    1
    40   127   124    1
    41   111   112    1
    42    69    68    2
    43   123   124    1
    44   123   113   am
    45    60    59    1
    46    60    66   am
    47   143   141   am
    48    68    67    1
    49    59    58    1
    50    59    62    1
    51   117   119   ar
    52   117   116   ar
    53   124   125    1
    54   125   126    2
    55    64    62    1
    56   119   121   ar
    57   142   141    2
    58   112   115    1
    59   112   113    1
    60    63    62    1
    61    63    65    1
    62   141   140    1
    63   115   116    1
    64   113   114    2
    65    66    67    1
    66    67    70    1
    67   116   118   ar
    68   121   122    1
    69   121   120   ar
    70   140   137    1
    71    72    70    1
    72    70    71    1
    73   118   120   ar
    74   135   132    1
    75    48    47    1
    76   137   136    1
    77   137   138    1
    78   136   133   am
    79    71    73    1
    80   133   132    1
    81   133   134    2
    82   132   131    1
    83     1     2    1
    84    52    51    2
    85     5     2    1
    86     5     6    1
    87    47    45   ar
    88    47    46   ar
    89     7     6   ar
    90     7     9   ar
    91    45    43   ar
    92    51    50    1
    93   138   139    2
    94     3     2    1
    95     3     4    2
    96    57    55   am
    97    49    50    1
    98   151   149   am
    99   149   150    2
   100   149   148    1
   101   148   145    1
   102    50    53    1
   103     6     8   ar
   104     9    10   ar
   105    46    44   ar
   106    43    42   ar
   107    55    56    2
   108    55    54    1
   109   157   156    1
   110   158   156    1
   111    36    34   ar
   112     8    10   ar
   113     8    11   ar
   114    53    54    1
   115   145   146    1
   116   145   144    1
   117    10    12   ar
   118   147   146    2
   119   156   153    1
   120    44    42   ar
   121    42    41    1
   122    34    35   ar
   123    34    33    1
   124    11    13   ar
   125    12    14   ar
   126    33    32    1
   127    40    39    2
   128   153   152    1
   129   153   154    1
   130    41    38    1
   131    39    38    1
   132    13    14   ar
   133   154   155    2
   134    20    19    1
   135    38    37    1
   136    32    29    1
   137    19    16    1
   138    29    30    1
   139    29    28    1
   140    31    30    2
   141    26    25    1
   142    16    17    1
   143    16    15    1
   144    18    17    2
   145    24    23    2
   146    28    23   am
   147    23    22    1
   148    25    27    1
   149    25    22    1
   150    22    21    1
