@<TRIPOS>MOLECULE
tmp/1juqE00.pdb
 101 96 0 0 0
SMALL
GASTEIGER

@<TRIPOS>ATOM
      1  N         46.0400   36.4460   22.0540 N.3    78  LYS78      -0.1231
      2  CA        46.3400   37.3630   23.1510 C.3    78  LYS78       0.1693
      3  C         47.8240   37.6840   23.1550 C.2    78  LYS78       0.2592
      4  O         48.6540   36.8090   22.8930 O.2    78  LYS78      -0.2718
      5  CB        45.9590   36.7530   24.5020 C.3    78  LYS78       0.0285
      6  CG        44.4630   36.6020   24.7250 C.3    78  LYS78       0.0035
      7  CD        44.1860   35.9650   26.0710 C.3    78  LYS78       0.0206
      8  CE        42.6920   35.8380   26.3240 C.3    78  LYS78       0.1093
      9  NZ        42.4410   35.1580   27.6250 N.3    78  LYS78      -0.1314
     10  N         48.1530   38.9400   23.4520 N.am   79  PHE79      -0.1962
     11  CA        49.5430   39.3810   23.4900 C.3    79  PHE79       0.1771
     12  C         50.3450   38.5240   24.4540 C.2    79  PHE79       0.2619
     13  O         51.5570   38.3710   24.3140 O.2    79  PHE79      -0.2715
     14  CB        49.6210   40.8590   23.8930 C.3    79  PHE79       0.0574
     15  CG        49.1500   41.8030   22.8180 C.ar   79  PHE79      -0.0200
     16  CD1       49.7780   41.8290   21.5750 C.ar   79  PHE79      -0.0042
     17  CD2       48.0760   42.6580   23.0410 C.ar   79  PHE79      -0.0042
     18  CE1       49.3430   42.6930   20.5650 C.ar   79  PHE79      -0.0003
     19  CE2       47.6330   43.5280   22.0380 C.ar   79  PHE79      -0.0003
     20  CZ        48.2700   43.5420   20.7980 C.ar   79  PHE79      -0.0000
     21  N         49.6550   37.9530   25.4290 N.am   80  ARG80      -0.1977
     22  CA        50.3050   37.0970   26.4020 C.3    80  ARG80       0.1597
     23  C         51.0220   35.9740   25.6480 C.2    80  ARG80       0.2287
     24  O         52.1320   35.5910   25.9950 O.2    80  ARG80      -0.2864
     25  CB        49.2530   36.5310   27.3580 C.3    80  ARG80       0.0334
     26  CG        49.8150   35.7330   28.5210 C.3    80  ARG80       0.0492
     27  CD        48.7360   35.4800   29.5760 C.3    80  ARG80       0.2205
     28  NE        47.5240   34.8940   29.0020 N.pl3  80  ARG80      -0.0865
     29  CZ        46.4620   34.5290   29.7150 C.cat  80  ARG80       0.5346
     30  NH1       46.4580   34.6920   31.0320 N.pl3  80  ARG80       0.1354
     31  NH2       45.4080   33.9880   29.1150 N.pl3  80  ARG80       0.1354
     32  N         53.3710   37.7000   22.1730 N.3    83  ASN83      -0.1240
     33  CA        54.6840   38.2560   22.4680 C.3    83  ASN83       0.1653
     34  C         55.7560   37.1870   22.5090 C.2    83  ASN83       0.2266
     35  O         56.9060   37.4470   22.1700 O.2    83  ASN83      -0.2867
     36  CB        54.6740   39.0260   23.7910 C.3    83  ASN83       0.1155
     37  CG        53.9360   40.3440   23.6860 C.2    83  ASN83       0.2627
     38  OD1       53.9890   41.0130   22.6530 O.2    83  ASN83      -0.2716
     39  ND2       53.2520   40.7330   24.7590 N.am   83  ASN83      -0.0877
     40  N         56.8170   36.6580   18.9470 N.3    86  ILE86      -0.1231
     41  CA        57.5920   37.8010   18.4810 C.3    86  ILE86       0.1692
     42  C         59.0320   37.7160   18.9840 C.2    86  ILE86       0.2591
     43  O         59.9730   38.1130   18.2950 O.2    86  ILE86      -0.2718
     44  CB        56.9670   39.1210   18.9660 C.3    86  ILE86       0.0266
     45  CG1       55.5670   39.2680   18.3710 C.3    86  ILE86       0.0019
     46  CG2       57.8530   40.2980   18.5720 C.3    86  ILE86       0.0020
     47  CD1       54.8210   40.4950   18.8470 C.3    86  ILE86       0.0001
     48  N         59.2050   37.1860   20.1880 N.am   87  LYS87      -0.1980
     49  CA        60.5370   37.0560   20.7510 C.3    87  LYS87       0.1596
     50  C         61.3410   36.0440   19.9460 C.2    87  LYS87       0.2287
     51  O         62.5710   36.1110   19.8960 O.2    87  LYS87      -0.2864
     52  CB        60.4440   36.6300   22.2170 C.3    87  LYS87       0.0298
     53  CG        59.7590   37.6590   23.1060 C.3    87  LYS87       0.0038
     54  CD        59.5210   37.1170   24.5090 C.3    87  LYS87       0.0206
     55  CE        58.7810   38.1300   25.3580 C.3    87  LYS87       0.1093
     56  NZ        58.3330   37.5600   26.6600 N.3    87  LYS87      -0.1314
     57  N         65.5090   40.2690   20.5700 N.3    93  TYR93      -0.1241
     58  CA        65.2970   39.2840   21.6270 C.3    93  TYR93       0.1605
     59  C         66.0000   37.9560   21.3360 C.2    93  TYR93       0.2264
     60  O         67.1890   37.8110   21.6100 O.2    93  TYR93      -0.2867
     61  CB        63.7980   39.0450   21.8460 C.3    93  TYR93       0.0534
     62  CG        62.9980   40.3040   22.1100 C.ar   93  TYR93      -0.0201
     63  CD1       62.5280   41.0850   21.0570 C.ar   93  TYR93      -0.0009
     64  CD2       62.7210   40.7220   23.4120 C.ar   93  TYR93      -0.0009
     65  CE1       61.8000   42.2530   21.2900 C.ar   93  TYR93       0.0417
     66  CE2       61.9960   41.8910   23.6570 C.ar   93  TYR93       0.0417
     67  CZ        61.5390   42.6510   22.5880 C.ar   93  TYR93       0.1957
     68  OH        60.8320   43.8120   22.8120 O.3    93  TYR93      -0.2866
     69  N         44.2180   41.2750   17.6780 N.3   121  LYS121     -0.1245
     70  CA        45.5620   41.3810   18.2240 C.3   121  LYS121      0.1561
     71  C         46.6290   40.7190   17.3510 C.2   121  LYS121      0.2260
     72  O         47.7660   41.1950   17.2850 O.2   121  LYS121     -0.2867
     73  CB        45.5860   40.8050   19.6410 C.3   121  LYS121      0.0271
     74  CG        44.6490   41.5510   20.5820 C.3   121  LYS121      0.0035
     75  CD        44.6620   40.9860   21.9860 C.3   121  LYS121      0.0206
     76  CE        43.8670   41.8790   22.9330 C.3   121  LYS121      0.1093
     77  NZ        43.8280   41.3280   24.3220 N.3   121  LYS121     -0.1314
     78  N         47.6980   43.0550   14.9540 N.3   124  ASP124     -0.1225
     79  CA        48.5220   44.0770   15.5920 C.3   124  ASP124      0.1805
     80  C         49.9460   43.5630   15.7380 C.2   124  ASP124      0.2597
     81  O         50.8990   44.2520   15.3930 O.2   124  ASP124     -0.2718
     82  CB        47.9690   44.4620   16.9720 C.3   124  ASP124      0.1424
     83  CG        46.6980   45.2890   16.8870 C.2   124  ASP124      0.3668
     84  OD1       46.5830   46.1200   15.9620 O.co2 124  ASP124     -0.2456
     85  OD2       45.8180   45.1230   17.7580 O.co2 124  ASP124     -0.2456
     86  N         50.0880   42.3470   16.2550 N.am  125  ALA125     -0.1979
     87  CA        51.4100   41.7530   16.4200 C.3   125  ALA125      0.1597
     88  C         52.1130   41.6650   15.0660 C.2   125  ALA125      0.2287
     89  O         53.3020   41.9560   14.9560 O.2   125  ALA125     -0.2864
     90  CB        51.2880   40.3610   17.0360 C.3   125  ALA125      0.0319
     91  N         56.5740   47.0880   10.7250 N.3   130  ARG130     -0.1245
     92  CA        57.0130   48.4410   11.0440 C.3   130  ARG130      0.1563
     93  C         58.4130   48.4380   11.6550 C.2   130  ARG130      0.2260
     94  O         59.0950   49.4590   11.6530 O.2   130  ARG130     -0.2867
     95  CB        56.0290   49.1090   12.0140 C.3   130  ARG130      0.0307
     96  CG        56.1330   48.6130   13.4490 C.3   130  ARG130      0.0489
     97  CD        55.0620   49.2180   14.3450 C.3   130  ARG130      0.2205
     98  NE        55.1590   48.7180   15.7160 N.pl3 130  ARG130     -0.0865
     99  CZ        54.2230   48.8930   16.6430 C.cat 130  ARG130      0.5346
    100  NH1       53.1150   49.5580   16.3490 N.pl3 130  ARG130      0.1354
    101  NH2       54.3920   48.3990   17.8630 N.pl3 130  ARG130      0.1354
@<TRIPOS>BOND
     1    91    92    1
     2    92    93    1
     3    92    95    1
     4    94    93    2
     5    95    96    1
     6    96    97    1
     7    97    98    1
     8    78    79    1
     9    89    88    2
    10    88    87    1
    11    81    80    2
    12    79    80    1
    13    79    82    1
    14    98    99    2
    15    80    86   am
    16    84    83   ar
    17    86    87    1
    18   100    99    1
    19    87    90    1
    20    99   101    1
    21    83    82    1
    22    83    85   ar
    23    72    71    2
    24    71    70    1
    25    69    70    1
    26    70    73    1
    27    43    42    2
    28    45    47    1
    29    45    44    1
    30    41    40    1
    31    41    44    1
    32    41    42    1
    33    46    44    1
    34    42    48   am
    35    73    74    1
    36    51    50    2
    37    50    49    1
    38    48    49    1
    39    18    20   ar
    40    18    16   ar
    41    57    58    1
    42    74    75    1
    43    49    52    1
    44    20    19   ar
    45    63    65   ar
    46    63    62   ar
    47    65    67   ar
    48    59    60    2
    49    59    58    1
    50    16    15   ar
    51    58    61    1
    52    61    62    1
    53    75    76    1
    54    19    17   ar
    55     1     2    1
    56    62    64   ar
    57    35    34    2
    58    32    33    1
    59    52    53    1
    60    33    34    1
    61    33    36    1
    62    67    68    1
    63    67    66   ar
    64    38    37    2
    65    15    17   ar
    66    15    14    1
    67     4     3    2
    68    76    77    1
    69    53    54    1
    70     2     3    1
    71     2     5    1
    72     3    10   am
    73    64    66   ar
    74    10    11    1
    75    11    14    1
    76    11    12    1
    77    37    36    1
    78    37    39   am
    79    13    12    2
    80    12    21   am
    81     5     6    1
    82    54    55    1
    83     6     7    1
    84    55    56    1
    85    21    22    1
    86    23    24    2
    87    23    22    1
    88     7     8    1
    89     8     9    1
    90    22    25    1
    91    25    26    1
    92    26    27    1
    93    28    27    1
    94    28    29    2
    95    31    29    1
    96    29    30    1
