@<TRIPOS>MOLECULE
tmp/1juqC00.pdb
 148 143 0 0 0
SMALL
GASTEIGER

@<TRIPOS>ATOM
      1  N         23.4740   17.3350    4.1940 N.3    86  LYS86      -0.1231
      2  CA        22.5110   17.0760    3.1290 C.3    86  LYS86       0.1693
      3  C         21.9470   15.6760    3.2590 C.2    86  LYS86       0.2592
      4  O         22.6570   14.7370    3.6280 O.2    86  LYS86      -0.2718
      5  CB        23.1610   17.2440    1.7550 C.3    86  LYS86       0.0285
      6  CG        23.5140   18.6740    1.4570 C.3    86  LYS86       0.0035
      7  CD        24.2340   18.8290    0.1380 C.3    86  LYS86       0.0206
      8  CE        24.5380   20.3030   -0.1130 C.3    86  LYS86       0.1093
      9  NZ        25.3180   20.5250   -1.3630 N.3    86  LYS86      -0.1314
     10  N         20.6620   15.5330    2.9720 N.am   87  PHE87      -0.1962
     11  CA        20.0360   14.2280    3.0600 C.3    87  PHE87       0.1771
     12  C         20.7480   13.2220    2.1550 C.2    87  PHE87       0.2619
     13  O         20.7820   12.0280    2.4500 O.2    87  PHE87      -0.2715
     14  CB        18.5490   14.3500    2.7160 C.3    87  PHE87       0.0574
     15  CG        17.7300   14.9620    3.8220 C.ar   87  PHE87      -0.0200
     16  CD1       17.8590   14.5020    5.1320 C.ar   87  PHE87      -0.0042
     17  CD2       16.8390   15.9980    3.5610 C.ar   87  PHE87      -0.0042
     18  CE1       17.1170   15.0640    6.1650 C.ar   87  PHE87      -0.0003
     19  CE2       16.0890   16.5680    4.5890 C.ar   87  PHE87      -0.0003
     20  CZ        16.2310   16.0990    5.8920 C.ar   87  PHE87      -0.0000
     21  N         21.3420   13.7130    1.0730 N.am   88  ARG88      -0.1977
     22  CA        22.0660   12.8530    0.1380 C.3    88  ARG88       0.1597
     23  C         23.1020   12.0480    0.9160 C.2    88  ARG88       0.2287
     24  O         23.3290   10.8710    0.6390 O.2    88  ARG88      -0.2864
     25  CB        22.7450   13.7070   -0.9360 C.3    88  ARG88       0.0334
     26  CG        23.3880   12.9330   -2.0850 C.3    88  ARG88       0.0492
     27  CD        23.7520   13.8910   -3.2390 C.3    88  ARG88       0.2205
     28  NE        24.5950   15.0000   -2.7860 N.pl3  88  ARG88      -0.0865
     29  CZ        24.9350   16.0540   -3.5280 C.cat  88  ARG88       0.5346
     30  NH1       24.5050   16.1660   -4.7800 N.pl3  88  ARG88       0.1354
     31  NH2       25.7160   17.0000   -3.0140 N.pl3  88  ARG88       0.1354
     32  N         23.2430   12.2230    4.6760 N.3    90  LEU90      -0.1231
     33  CA        22.5800   11.7750    5.8970 C.3    90  LEU90       0.1693
     34  C         21.7420   10.4920    5.7420 C.2    90  LEU90       0.2592
     35  O         21.6880    9.6630    6.6630 O.2    90  LEU90      -0.2718
     36  CB        21.7250   12.9150    6.4750 C.3    90  LEU90       0.0284
     37  CG        22.4920   14.1690    6.9480 C.3    90  LEU90       0.0019
     38  CD1       21.5200   15.2960    7.2450 C.3    90  LEU90       0.0001
     39  CD2       23.3020   13.8490    8.1980 C.3    90  LEU90       0.0001
     40  N         21.1030   10.3130    4.5900 N.am   91  ASN91      -0.1974
     41  CA        20.2880    9.1190    4.3670 C.3    91  ASN91       0.1688
     42  C         21.1300    7.8570    4.4380 C.2    91  ASN91       0.2292
     43  O         20.6610    6.8110    4.8900 O.2    91  ASN91      -0.2864
     44  CB        19.5760    9.1880    3.0150 C.3    91  ASN91       0.1181
     45  CG        18.4150   10.1600    3.0210 C.2    91  ASN91       0.2629
     46  OD1       17.8920   10.5120    4.0800 O.2    91  ASN91      -0.2716
     47  ND2       17.9880   10.5820    1.8370 N.am   91  ASN91      -0.0877
     48  N         21.5180    6.9880    8.0130 N.3    94  ILE94      -0.1231
     49  CA        20.2520    6.4790    8.5330 C.3    94  ILE94       0.1692
     50  C         20.1660    4.9820    8.2290 C.2    94  ILE94       0.2591
     51  O         19.7970    4.1830    9.0920 O.2    94  ILE94      -0.2718
     52  CB        19.0380    7.1740    7.8700 C.3    94  ILE94       0.0266
     53  CG1       18.9920    8.6590    8.2530 C.3    94  ILE94       0.0019
     54  CG2       17.7580    6.4510    8.2650 C.3    94  ILE94       0.0020
     55  CD1       18.7440    8.9050    9.7180 C.3    94  ILE94       0.0001
     56  N         20.5170    4.6130    6.9970 N.am   95  LYS95      -0.1980
     57  CA        20.4940    3.2150    6.5750 C.3    95  LYS95       0.1596
     58  C         21.3650    2.3180    7.4500 C.2    95  LYS95       0.2287
     59  O         21.0230    1.1630    7.6940 O.2    95  LYS95      -0.2864
     60  CB        20.9560    3.0890    5.1270 C.3    95  LYS95       0.0298
     61  CG        20.0130    3.6910    4.1140 C.3    95  LYS95       0.0038
     62  CD        20.6280    3.5830    2.7290 C.3    95  LYS95       0.0206
     63  CE        19.7520    4.2040    1.6690 C.3    95  LYS95       0.1093
     64  NZ        20.4340    4.0900    0.3640 N.3    95  LYS95      -0.1314
     65  N         19.2800    1.9800   10.8880 N.3    98  SER98      -0.1203
     66  CA        17.9030    1.4980   10.8060 C.3    98  SER98       0.2005
     67  C         17.7840    0.0200   10.4220 C.2    98  SER98       0.2461
     68  O         18.3780   -0.4250    9.4380 O.2    98  SER98      -0.2732
     69  CB        17.1140    2.3510    9.8140 C.3    98  SER98       0.2103
     70  OG        15.8410    1.7810    9.5840 O.3    98  SER98      -0.2182
     71  N         17.0060   -0.7550   11.2040 N.am   99  PRO99      -0.2717
     72  CA        16.7510   -2.1910   11.0250 C.3    99  PRO99       0.1535
     73  C         16.0900   -2.5210    9.6920 C.2    99  PRO99       0.2598
     74  O         16.2220   -3.6320    9.1850 O.2    99  PRO99      -0.2715
     75  CB        15.8360   -2.5340   12.1970 C.3    99  PRO99       0.0310
     76  CG        16.2030   -1.5210   13.2310 C.3    99  PRO99       0.0237
     77  CD        16.3290   -0.2640   12.4170 C.3    99  PRO99       0.0939
     78  N         15.3740   -1.5500    9.1350 N.am  100  LYS100     -0.1964
     79  CA        14.6980   -1.7320    7.8650 C.3   100  LYS100      0.1728
     80  C         15.6750   -1.6700    6.6970 C.2   100  LYS100      0.2616
     81  O         15.3270   -2.0180    5.5740 O.2   100  LYS100     -0.2715
     82  CB        13.6060   -0.6800    7.7060 C.3   100  LYS100      0.0311
     83  CG        12.6000   -0.7160    8.8480 C.3   100  LYS100      0.0038
     84  CD        11.4680    0.2820    8.6680 C.3   100  LYS100      0.0206
     85  CE        10.5120    0.2120    9.8510 C.3   100  LYS100      0.1093
     86  NZ         9.3090    1.0530    9.6410 N.3   100  LYS100     -0.1314
     87  N         16.8990   -1.2190    6.9530 N.am  101  TYR101     -0.1974
     88  CA        17.9000   -1.1770    5.8940 C.3   101  TYR101      0.1639
     89  C         19.0810   -2.0660    6.2630 C.2   101  TYR101      0.2290
     90  O         18.9420   -3.2840    6.3220 O.2   101  TYR101     -0.2864
     91  CB        18.3700    0.2540    5.6340 C.3   101  TYR101      0.0560
     92  CG        17.2690    1.1560    5.1270 C.ar  101  TYR101     -0.0198
     93  CD1       16.3660    1.7500    6.0060 C.ar  101  TYR101     -0.0009
     94  CD2       17.1140    1.3960    3.7630 C.ar  101  TYR101     -0.0009
     95  CE1       15.3350    2.5620    5.5400 C.ar  101  TYR101      0.0417
     96  CE2       16.0860    2.2020    3.2890 C.ar  101  TYR101      0.0417
     97  CZ        15.2010    2.7820    4.1840 C.ar  101  TYR101      0.1957
     98  OH        14.1850    3.5870    3.7190 O.3   101  TYR101     -0.2866
     99  N         18.9720   20.0170    8.3060 N.3   129  LYS129     -0.1245
    100  CA        18.7550   18.6300    7.9120 C.3   129  LYS129      0.1561
    101  C         19.3530   17.6220    8.8870 C.2   129  LYS129      0.2260
    102  O         18.7870   16.5500    9.0950 O.2   129  LYS129     -0.2867
    103  CB        19.2690   18.4070    6.4870 C.3   129  LYS129      0.0271
    104  CG        18.3950   19.1270    5.4540 C.3   129  LYS129      0.0035
    105  CD        19.0010   19.1360    4.0590 C.3   129  LYS129      0.0206
    106  CE        18.0910   19.8690    3.0720 C.3   129  LYS129      0.1093
    107  NZ        18.7600   20.0600    1.7480 N.3   129  LYS129     -0.1314
    108  N         16.8120   17.2640   11.5180 N.3   132  ASP132     -0.1225
    109  CA        15.6590   16.5460   10.9840 C.3   132  ASP132      0.1805
    110  C         15.9950   15.0650   11.0150 C.2   132  ASP132      0.2597
    111  O         15.2120   14.2440   11.4880 O.2   132  ASP132     -0.2718
    112  CB        15.3610   16.9450    9.5290 C.3   132  ASP132      0.1424
    113  CG        14.8140   18.3620    9.3940 C.2   132  ASP132      0.3668
    114  OD1       14.1450   18.8470   10.3310 O.co2 132  ASP132     -0.2456
    115  OD2       15.0330   18.9860    8.3330 O.co2 132  ASP132     -0.2456
    116  N         17.1770   14.7310   10.5090 N.am  133  ALA133     -0.1979
    117  CA        17.6200   13.3440   10.4630 C.3   133  ALA133      0.1597
    118  C         17.6250   12.7300   11.8500 C.2   133  ALA133      0.2287
    119  O         16.9970   11.6970   12.0780 O.2   133  ALA133     -0.2864
    120  CB        19.0220   13.2510    9.8420 C.3   133  ALA133      0.0319
    121  N         11.9800    9.9560   16.9490 N.3   138  ARG138     -0.1231
    122  CA        10.5360    9.7730   16.8830 C.3   138  ARG138      0.1694
    123  C         10.1650    8.3970   16.3290 C.2   138  ARG138      0.2591
    124  O          9.0830    7.8910   16.6030 O.2   138  ARG138     -0.2718
    125  CB         9.8640   10.8820   16.0540 C.3   138  ARG138      0.0321
    126  CG        10.2910   11.0060   14.6000 C.3   138  ARG138      0.0489
    127  CD         9.3840   12.0210   13.8880 C.3   138  ARG138      0.2205
    128  NE         9.9350   12.5740   12.6460 N.pl3 138  ARG138     -0.0865
    129  CZ        10.2740   11.8610   11.5730 C.cat 138  ARG138      0.5346
    130  NH1       10.1380   10.5420   11.5590 N.pl3 138  ARG138      0.1354
    131  NH2       10.7310   12.4790   10.4950 N.pl3 138  ARG138      0.1354
    132  N         11.0720    7.7840   15.5750 N.am  139  GLN139     -0.1979
    133  CA        10.8230    6.4700   14.9980 C.3   139  GLN139      0.1601
    134  C         11.2950    5.3240   15.8880 C.2   139  GLN139      0.2287
    135  O         11.2170    4.1560   15.5050 O.2   139  GLN139     -0.2864
    136  CB        11.4950    6.3620   13.6280 C.3   139  GLN139      0.0394
    137  CG        10.7960    7.1630   12.5410 C.3   139  GLN139      0.0908
    138  CD         9.3980    6.6540   12.2720 C.2   139  GLN139      0.2608
    139  OE1        9.2140    5.5020   11.8730 O.2   139  GLN139     -0.2717
    140  NE2        8.4000    7.5050   12.4970 N.am  139  GLN139     -0.0878
    141  N         14.3800    4.3990   16.7700 N.3   141  ILE141     -0.1245
    142  CA        15.7120    3.8190   16.5860 C.3   141  ILE141      0.1561
    143  C         16.6430    4.2950   17.6940 C.2   141  ILE141      0.2260
    144  O         17.4630    3.5330   18.2010 O.2   141  ILE141     -0.2867
    145  CB        16.3100    4.1770   15.2180 C.3   141  ILE141      0.0252
    146  CG1       15.5400    3.4420   14.1190 C.3   141  ILE141      0.0019
    147  CG2       17.7880    3.8020   15.1880 C.3   141  ILE141      0.0019
    148  CD1       15.9530    3.8020   12.7190 C.3   141  ILE141      0.0001
@<TRIPOS>BOND
     1    30    29    1
     2    29    31    1
     3    29    28    2
     4    27    28    1
     5    27    26    1
     6    26    25    1
     7     9     8    1
     8    25    22    1
     9     8     7    1
    10    22    23    1
    11    22    21    1
    12     7     6    1
    13    64    63    1
    14    24    23    2
    15    21    12   am
    16     6     5    1
    17    63    62    1
    18   107   106    1
    19     5     2    1
    20    47    45   am
    21    12    13    2
    22    12    11    1
    23    14    11    1
    24    14    15    1
    25    62    61    1
    26    10    11    1
    27    10     3   am
    28    44    45    1
    29    44    41    1
    30    45    46    2
    31   106   105    1
    32     2     3    1
    33     2     1    1
    34     3     4    2
    35    96    94   ar
    36    96    97   ar
    37    17    15   ar
    38    17    19   ar
    39    98    97    1
    40    94    92   ar
    41    15    16   ar
    42   105   104    1
    43    61    60    1
    44    97    95   ar
    45    41    42    1
    46    41    40    1
    47    42    43    2
    48    19    20   ar
    49    40    34   am
    50    32    33    1
    51    92    91    1
    52    92    93   ar
    53    60    57    1
    54    16    18   ar
    55   104   103    1
    56    95    93   ar
    57    81    80    2
    58    91    88    1
    59    34    33    1
    60    34    35    2
    61    20    18   ar
    62    88    89    1
    63    88    87    1
    64    33    36    1
    65    89    90    2
    66    36    37    1
    67   103   100    1
    68    57    56    1
    69    57    58    1
    70    80    87   am
    71    80    79    1
    72    37    38    1
    73    37    39    1
    74    56    50   am
    75    58    59    2
    76    82    79    1
    77    82    83    1
    78    79    78    1
    79    52    53    1
    80    52    54    1
    81    52    49    1
    82   100    99    1
    83   100   101    1
    84    48    49    1
    85    50    49    1
    86    50    51    2
    87    53    55    1
    88   115   113   ar
    89    84    83    1
    90    84    85    1
    91   101   102    2
    92    78    73   am
    93    74    73    2
    94   113   112    1
    95   113   114   ar
    96    68    67    2
    97   112   109    1
    98    70    69    1
    99    86    85    1
   100    73    72    1
   101    69    66    1
   102   120   117    1
   103    67    66    1
   104    67    71   am
   105   117   116    1
   106   117   118    1
   107   131   129    1
   108   116   110   am
   109    66    65    1
   110   109   110    1
   111   109   108    1
   112   110   111    2
   113    72    71    1
   114    72    75    1
   115    71    77    1
   116   130   129    1
   117   129   128    2
   118   118   119    2
   119   139   138    2
   120    75    76    1
   121   138   140   am
   122   138   137    1
   123    77    76    1
   124   137   136    1
   125   128   127    1
   126   148   146    1
   127   136   133    1
   128   127   126    1
   129   146   145    1
   130   126   125    1
   131   133   132    1
   132   133   134    1
   133   147   145    1
   134   145   142    1
   135   135   134    2
   136   132   123   am
   137   125   122    1
   138   123   124    2
   139   123   122    1
   140   142   141    1
   141   142   143    1
   142   122   121    1
   143   143   144    2
