@<TRIPOS>MOLECULE
tmp/1juqG00.pdb
 141 133 0 0 0
SMALL
GASTEIGER

@<TRIPOS>ATOM
      1  N         17.0620   39.3460   32.2450 N.3    86  LYS86      -0.1231
      2  CA        16.8970   40.3080   31.1620 C.3    86  LYS86       0.1693
      3  C         15.4820   40.8540   31.1880 C.2    86  LYS86       0.2592
      4  O         14.5300   40.1270   31.4740 O.2    86  LYS86      -0.2718
      5  CB        17.1940   39.6560   29.8040 C.3    86  LYS86       0.0285
      6  CG        18.6660   39.3130   29.6010 C.3    86  LYS86       0.0035
      7  CD        18.8860   38.4890   28.3350 C.3    86  LYS86       0.0206
      8  CE        20.3690   38.2220   28.0980 C.3    86  LYS86       0.1093
      9  NZ        20.6060   37.3200   26.9270 N.3    86  LYS86      -0.1314
     10  N         15.3450   42.1420   30.8990 N.am   87  PHE87      -0.1962
     11  CA        14.0390   42.7820   30.8970 C.3    87  PHE87       0.1771
     12  C         13.0590   42.0950   29.9600 C.2    87  PHE87       0.2619
     13  O         11.8600   42.0690   30.2300 O.2    87  PHE87      -0.2715
     14  CB        14.1880   44.2660   30.5370 C.3    87  PHE87       0.0574
     15  CG        14.8510   45.0840   31.6190 C.ar   87  PHE87      -0.0200
     16  CD1       14.5100   44.9000   32.9530 C.ar   87  PHE87      -0.0042
     17  CD2       15.8210   46.0300   31.3040 C.ar   87  PHE87      -0.0042
     18  CE1       15.1290   45.6490   33.9630 C.ar   87  PHE87      -0.0003
     19  CE2       16.4450   46.7820   32.3040 C.ar   87  PHE87      -0.0003
     20  CZ        16.0960   46.5900   33.6340 C.ar   87  PHE87      -0.0000
     21  N         13.5610   41.5180   28.8720 N.am   88  ARG88      -0.1977
     22  CA        12.6820   40.8350   27.9280 C.3    88  ARG88       0.1597
     23  C         11.8560   39.7990   28.6900 C.2    88  ARG88       0.2287
     24  O         10.7000   39.5690   28.3830 O.2    88  ARG88      -0.2864
     25  CB        13.4960   40.1520   26.8220 C.3    88  ARG88       0.0334
     26  CG        12.6590   39.6730   25.6390 C.3    88  ARG88       0.0492
     27  CD        13.4500   38.7010   24.7580 C.3    88  ARG88       0.2205
     28  NE        12.6080   38.0160   23.7760 N.pl3  88  ARG88      -0.0865
     29  CZ        12.3560   38.4740   22.5540 C.cat  88  ARG88       0.5346
     30  NH1       12.8840   39.6230   22.1540 N.pl3  88  ARG88       0.1354
     31  NH2       11.5740   37.7860   21.7300 N.pl3  88  ARG88       0.1354
     32  N          9.9940   41.8130   32.2470 N.3    91  ASN91      -0.1240
     33  CA         8.8120   42.6160   31.9300 C.3    91  ASN91       0.1653
     34  C          7.5420   41.7840   31.8610 C.2    91  ASN91       0.2266
     35  O          6.4450   42.2920   32.1000 O.2    91  ASN91      -0.2867
     36  CB         8.9780   43.3500   30.5980 C.3    91  ASN91       0.1155
     37  CG        10.0040   44.4480   30.6620 C.2    91  ASN91       0.2627
     38  OD1       10.3060   44.9670   31.7370 O.2    91  ASN91      -0.2716
     39  ND2       10.5430   44.8250   29.5020 N.am   91  ASN91      -0.0877
     40  N          6.3920   41.3990   35.3250 N.3    94  ILE94      -0.1231
     41  CA         5.8280   42.6500   35.8250 C.3    94  ILE94       0.1692
     42  C          4.3890   42.8020   35.3170 C.2    94  ILE94       0.2591
     43  O          3.5290   43.3330   36.0150 O.2    94  ILE94      -0.2718
     44  CB         6.6660   43.8780   35.3720 C.3    94  ILE94       0.0266
     45  CG1        8.0320   43.8720   36.0750 C.3    94  ILE94       0.0019
     46  CG2        5.9170   45.1670   35.7020 C.3    94  ILE94       0.0020
     47  CD1        9.0040   44.9240   35.5500 C.3    94  ILE94       0.0001
     48  N          4.1250   42.3150   34.1100 N.am   95  LYS95      -0.1980
     49  CA         2.7860   42.4040   33.5310 C.3    95  LYS95       0.1596
     50  C          1.8190   41.5550   34.3440 C.2    95  LYS95       0.2287
     51  O          0.6310   41.8620   34.4510 O.2    95  LYS95      -0.2864
     52  CB         2.8080   41.9240   32.0740 C.3    95  LYS95       0.0298
     53  CG         3.6300   42.8210   31.1560 C.3    95  LYS95       0.0038
     54  CD         3.9830   42.1520   29.8330 C.3    95  LYS95       0.0206
     55  CE         2.7570   41.8030   29.0070 C.3    95  LYS95       0.1093
     56  NZ         3.1490   41.3250   27.6430 N.3    95  LYS95      -0.1314
     57  N          1.1490   43.8220   37.7120 N.3    98  SER98      -0.1217
     58  CA         0.7030   45.2100   37.5910 C.3    98  SER98       0.1889
     59  C         -0.7640   45.3480   37.2130 C.2    98  SER98       0.2288
     60  O         -1.2560   44.6600   36.3130 O.2    98  SER98      -0.2866
     61  CB         1.5320   45.9640   36.5500 C.3    98  SER98       0.2089
     62  OG         2.8970   45.9930   36.9090 O.3    98  SER98      -0.2183
     63  N         -2.0280   47.7880   35.7880 N.3   100  LYS100     -0.1231
     64  CA        -2.0240   48.3990   34.4630 C.3   100  LYS100      0.1693
     65  C         -1.9260   47.3720   33.3400 C.2   100  LYS100      0.2592
     66  O         -2.1730   47.7010   32.1750 O.2   100  LYS100     -0.2718
     67  CB        -0.8630   49.3850   34.3210 C.3   100  LYS100      0.0285
     68  CG        -0.8560   50.5120   35.3320 C.3   100  LYS100      0.0035
     69  CD         0.2340   51.5190   34.9990 C.3   100  LYS100      0.0206
     70  CE         0.4240   52.5190   36.1320 C.3   100  LYS100      0.1093
     71  NZ        -0.8580   53.1710   36.5300 N.3   100  LYS100     -0.1314
     72  N         -1.5550   46.1360   33.6750 N.am  101  TYR101     -0.1976
     73  CA        -1.4460   45.0990   32.6520 C.3   101  TYR101      0.1639
     74  C         -2.3680   43.9120   32.9210 C.2   101  TYR101      0.2290
     75  O         -3.5660   44.0000   32.6700 O.2   101  TYR101     -0.2864
     76  CB         0.0140   44.6460   32.5020 C.3   101  TYR101      0.0560
     77  CG         0.9410   45.7460   32.0050 C.ar  101  TYR101     -0.0198
     78  CD1        1.4530   46.7050   32.8780 C.ar  101  TYR101     -0.0009
     79  CD2        1.2810   45.8430   30.6530 C.ar  101  TYR101     -0.0009
     80  CE1        2.2790   47.7280   32.4250 C.ar  101  TYR101      0.0417
     81  CE2        2.1060   46.8710   30.1840 C.ar  101  TYR101      0.0417
     82  CZ         2.6020   47.8070   31.0780 C.ar  101  TYR101      0.1957
     83  OH         3.4330   48.8100   30.6330 O.3   101  TYR101     -0.2866
     84  N         19.5880   43.6700   36.7200 N.3   129  LYS129     -0.1245
     85  CA        18.2840   44.0220   36.1790 C.3   129  LYS129      0.1561
     86  C         17.1230   43.4790   37.0020 C.2   129  LYS129      0.2260
     87  O         16.0340   44.0570   36.9980 O.2   129  LYS129     -0.2867
     88  CB        18.1860   43.5700   34.7260 C.3   129  LYS129      0.0271
     89  CG        19.2250   44.2570   33.8390 C.3   129  LYS129      0.0035
     90  CD        19.1980   43.7350   32.4240 C.3   129  LYS129      0.0206
     91  CE        20.0900   44.5710   31.5190 C.3   129  LYS129      0.1093
     92  NZ        20.0870   44.0260   30.1360 N.3   129  LYS129     -0.1314
     93  N         16.4410   46.1050   39.5000 N.3   132  ASP132     -0.1225
     94  CA        15.7850   47.2420   38.8560 C.3   132  ASP132      0.1805
     95  C         14.3070   46.9370   38.6440 C.2   132  ASP132      0.2597
     96  O         13.4440   47.7500   38.9810 O.2   132  ASP132     -0.2718
     97  CB        16.4250   47.5630   37.4990 C.3   132  ASP132      0.1424
     98  CG        17.8710   47.9820   37.6190 C.2   132  ASP132      0.3668
     99  OD1       18.1930   48.7390   38.5580 O.co2 132  ASP132     -0.2456
    100  OD2       18.6860   47.5640   36.7670 O.co2 132  ASP132     -0.2456
    101  N         14.0120   45.7690   38.0770 N.am  133  ALA133     -0.1979
    102  CA        12.6190   45.3960   37.8610 C.3   133  ALA133      0.1597
    103  C         11.8890   45.4280   39.1980 C.2   133  ALA133      0.2287
    104  O         10.7800   45.9610   39.2910 O.2   133  ALA133     -0.2864
    105  CB        12.5200   44.0060   37.2530 C.3   133  ALA133      0.0319
    106  N          8.7460   48.0550   40.8440 N.3   136  LEU136     -0.1245
    107  CA         7.4740   47.5970   41.3920 C.3   136  LEU136      0.1561
    108  C          7.1870   48.3160   42.7000 C.2   136  LEU136      0.2260
    109  O          6.0430   48.6630   42.9830 O.2   136  LEU136     -0.2867
    110  CB         7.4890   46.0880   41.6340 C.3   136  LEU136      0.0270
    111  CG         7.4410   45.1900   40.3950 C.3   136  LEU136      0.0019
    112  CD1        7.4000   43.7330   40.8260 C.3   136  LEU136      0.0001
    113  CD2        6.2110   45.5300   39.5620 C.3   136  LEU136      0.0001
    114  N          8.4510   51.2900   43.5230 N.3   138  ARG138     -0.1231
    115  CA         8.2060   52.6770   43.1420 C.3   138  ARG138      0.1694
    116  C          6.7460   52.8610   42.7440 C.2   138  ARG138      0.2591
    117  O          6.0730   53.7570   43.2380 O.2   138  ARG138     -0.2718
    118  CB         9.1000   53.0780   41.9660 C.3   138  ARG138      0.0321
    119  CG         8.9950   54.5500   41.5800 C.3   138  ARG138      0.0489
    120  CD         9.4400   54.7960   40.1420 C.3   138  ARG138      0.2205
    121  NE        10.7550   54.2230   39.8690 N.pl3 138  ARG138     -0.0865
    122  CZ        10.9860   53.2570   38.9820 C.cat 138  ARG138      0.5346
    123  NH1        9.9880   52.7460   38.2690 N.pl3 138  ARG138      0.1354
    124  NH2       12.2200   52.8020   38.8110 N.pl3 138  ARG138      0.1354
    125  N          6.2600   52.0100   41.8470 N.am  139  GLN139     -0.1979
    126  CA         4.8770   52.0870   41.3880 C.3   139  GLN139      0.1601
    127  C          3.8780   51.7280   42.4850 C.2   139  GLN139      0.2287
    128  O          2.6650   51.8920   42.3140 O.2   139  GLN139     -0.2864
    129  CB         4.6680   51.1650   40.1850 C.3   139  GLN139      0.0394
    130  CG         4.9930   51.8080   38.8440 C.3   139  GLN139      0.0908
    131  CD         3.7450   52.1720   38.0570 C.2   139  GLN139      0.2608
    132  OE1        3.8210   52.8460   37.0270 O.2   139  GLN139     -0.2717
    133  NE2        2.5870   51.7210   38.5340 N.am  139  GLN139     -0.0878
    134  N          3.1760   48.7270   43.5960 N.3   141  ILE141     -0.1245
    135  CA         2.5680   47.4070   43.4410 C.3   141  ILE141      0.1561
    136  C          3.0430   46.5680   44.6140 C.2   141  ILE141      0.2260
    137  O          2.2980   45.7670   45.1660 O.2   141  ILE141     -0.2867
    138  CB         3.0070   46.7260   42.1350 C.3   141  ILE141      0.0252
    139  CG1        2.6130   47.5950   40.9410 C.3   141  ILE141      0.0019
    140  CG2        2.3650   45.3490   42.0250 C.3   141  ILE141      0.0019
    141  CD1        3.1240   47.0690   39.6200 C.3   141  ILE141      0.0001
@<TRIPOS>BOND
     1    31    29    1
     2    30    29    1
     3    29    28    2
     4    28    27    1
     5    27    26    1
     6    26    25    1
     7    25    22    1
     8     9     8    1
     9    56    55    1
    10    22    23    1
    11    22    21    1
    12     8     7    1
    13     7     6    1
    14    24    23    2
    15    21    12   am
    16    55    54    1
    17    39    37   am
    18     6     5    1
    19     5     2    1
    20    54    53    1
    21    12    13    2
    22    12    11    1
    23    92    91    1
    24    81    79   ar
    25    81    82   ar
    26    14    11    1
    27    14    15    1
    28    36    37    1
    29    36    33    1
    30    83    82    1
    31    79    77   ar
    32    37    38    2
    33    11    10    1
    34    10     3   am
    35    82    80   ar
    36    53    52    1
    37     2     3    1
    38     2     1    1
    39     3     4    2
    40    17    15   ar
    41    17    19   ar
    42    91    90    1
    43    15    16   ar
    44    34    33    1
    45    34    35    2
    46    33    32    1
    47    77    76    1
    48    77    78   ar
    49    52    49    1
    50    66    65    2
    51    19    20   ar
    52    90    89    1
    53    80    78   ar
    54    76    73    1
    55    73    74    1
    56    73    72    1
    57    75    74    2
    58    16    18   ar
    59    65    72   am
    60    65    64    1
    61    49    48    1
    62    49    50    1
    63    20    18   ar
    64    89    88    1
    65    48    42   am
    66    67    64    1
    67    67    68    1
    68    50    51    2
    69    64    63    1
    70    88    85    1
    71    69    68    1
    72    69    70    1
    73    42    41    1
    74    42    43    2
    75    40    41    1
    76    44    46    1
    77    44    41    1
    78    44    45    1
    79    47    45    1
    80    70    71    1
    81    85    84    1
    82    85    86    1
    83    60    59    2
    84    61    62    1
    85    61    58    1
    86   100    98   ar
    87    87    86    2
    88   132   131    2
    89    59    58    1
    90   105   102    1
    91    97    98    1
    92    97    94    1
    93    58    57    1
    94    98    99   ar
    95   102   101    1
    96   102   103    1
    97   131   133   am
    98   131   130    1
    99   101    95   am
   100   123   122    1
   101    95    94    1
   102    95    96    2
   103   124   122    1
   104   130   129    1
   105    94    93    1
   106   122   121    2
   107   103   104    2
   108   113   111    1
   109   141   139    1
   110   121   120    1
   111   120   119    1
   112   129   126    1
   113   111   112    1
   114   111   110    1
   115   106   107    1
   116   139   138    1
   117   126   125    1
   118   126   127    1
   119   107   110    1
   120   107   108    1
   121   119   118    1
   122   125   116   am
   123   118   115    1
   124   140   138    1
   125   138   135    1
   126   128   127    2
   127   108   109    2
   128   116   115    1
   129   116   117    2
   130   115   114    1
   131   135   134    1
   132   135   136    1
   133   136   137    2
