@<TRIPOS>MOLECULE
tmp/1jutB01.pdb
 223 217 0 0 0
SMALL
GASTEIGER

@<TRIPOS>ATOM
      1  N         51.8170   25.3780   27.1460 N.3    20  ARG20      -0.1245
      2  CA        52.3530   24.9800   25.8510 C.3    20  ARG20       0.1563
      3  C         53.4440   25.9230   25.3730 C.2    20  ARG20       0.2260
      4  O         54.3400   25.5200   24.6380 O.2    20  ARG20      -0.2867
      5  CB        51.2380   24.8710   24.8150 C.3    20  ARG20       0.0307
      6  CG        50.5600   26.1670   24.4820 C.3    20  ARG20       0.0489
      7  CD        49.8470   26.0660   23.1470 C.3    20  ARG20       0.2205
      8  NE        49.1700   27.3160   22.8270 N.pl3  20  ARG20      -0.0865
      9  CZ        49.7980   28.4660   22.6210 C.cat  20  ARG20       0.5346
     10  NH1       51.1210   28.5210   22.6970 N.pl3  20  ARG20       0.1354
     11  NH2       49.1040   29.5670   22.3630 N.pl3  20  ARG20       0.1354
     12  N         44.3740   50.9880   32.6800 N.3    47  LYS47      -0.1231
     13  CA        45.3600   50.8110   31.6280 C.3    47  LYS47       0.1693
     14  C         44.6530   51.1840   30.3390 C.2    47  LYS47       0.2592
     15  O         43.5940   50.6360   30.0380 O.2    47  LYS47      -0.2718
     16  CB        45.8140   49.3520   31.6030 C.3    47  LYS47       0.0285
     17  CG        46.0630   48.7520   30.2280 C.3    47  LYS47       0.0035
     18  CD        46.2240   47.2500   30.3580 C.3    47  LYS47       0.0206
     19  CE        46.0400   46.5420   29.0330 C.3    47  LYS47       0.1093
     20  NZ        46.0830   45.0660   29.1820 N.3    47  LYS47      -0.1314
     21  N         45.2170   52.1210   29.5840 N.am   48  ARG48      -0.1966
     22  CA        44.5850   52.5230   28.3420 C.3    48  ARG48       0.1729
     23  C         44.5250   51.3330   27.3810 C.2    48  ARG48       0.2616
     24  O         45.5340   50.6800   27.0980 O.2    48  ARG48      -0.2715
     25  CB        45.3500   53.6870   27.7000 C.3    48  ARG48       0.0348
     26  CG        44.5870   54.4140   26.5620 C.3    48  ARG48       0.0492
     27  CD        45.3210   55.6680   26.0780 C.3    48  ARG48       0.2205
     28  NE        45.3420   56.7330   27.0850 N.pl3  48  ARG48      -0.0865
     29  CZ        44.3240   57.5450   27.3570 C.cat  48  ARG48       0.5346
     30  NH1       44.4440   58.4770   28.2960 N.pl3  48  ARG48       0.1354
     31  NH2       43.1940   57.4320   26.6840 N.pl3  48  ARG48       0.1354
     32  N         43.3160   51.0280   26.9250 N.am   49  CYS49      -0.1954
     33  CA        43.0840   49.9510   25.9670 C.3    49  CYS49       0.1843
     34  C         42.7410   50.6320   24.6570 C.2    49  CYS49       0.2625
     35  O         42.0790   51.6650   24.6640 O.2    49  CYS49      -0.2714
     36  CB        41.8970   49.0760   26.4000 C.3    49  CYS49       0.0997
     37  SG        42.0950   48.1320   27.9230 S.3    49  CYS49      -0.0797
     38  N         43.1900   50.0820   23.5380 N.am   50  HIS50      -0.1973
     39  CA        42.8520   50.7130   22.2840 C.3    50  HIS50       0.1656
     40  C         41.7390   49.9830   21.5710 C.2    50  HIS50       0.2291
     41  O         41.8650   48.8740   21.0940 O.2    50  HIS50      -0.2864
     42  CB        44.0940   50.8860   21.4210 C.3    50  HIS50       0.0771
     43  CG        44.9340   52.0780   21.8110 C.ar   50  HIS50       0.0820
     44  ND1       44.4730   53.3740   21.7200 N.ar   50  HIS50      -0.2267
     45  CD2       46.1660   52.1630   22.3780 C.ar   50  HIS50       0.1154
     46  CE1       45.3700   54.2030   22.2230 C.ar   50  HIS50       0.1986
     47  NE2       46.4080   53.4950   22.6320 N.ar   50  HIS50      -0.2212
     48  N         41.3410   48.4920   17.6960 N.3    53  SER53      -0.1217
     49  CA        41.7410   47.1250   17.3930 C.3    53  SER53       0.1889
     50  C         40.5920   46.1880   17.7280 C.2    53  SER53       0.2288
     51  O         40.2790   45.2720   16.9730 O.2    53  SER53      -0.2866
     52  CB        42.9700   46.7590   18.2210 C.3    53  SER53       0.2089
     53  OG        43.9860   47.7490   18.0990 O.3    53  SER53      -0.2183
     54  N         38.3530   43.8910   14.8710 N.3    57  GLU57      -0.1245
     55  CA        38.3840   42.4340   15.0080 C.3    57  GLU57       0.1567
     56  C         36.9580   41.9130   15.0030 C.2    57  GLU57       0.2260
     57  O         36.6230   41.0100   14.2310 O.2    57  GLU57      -0.2867
     58  CB        39.0730   41.9830   16.3050 C.3    57  GLU57       0.0388
     59  CG        39.1360   40.4620   16.4360 C.3    57  GLU57       0.1160
     60  CD        39.5760   39.9910   17.8120 C.2    57  GLU57       0.3649
     61  OE1       39.0350   40.4840   18.8250 O.co2  57  GLU57      -0.2457
     62  OE2       40.4510   39.1090   17.8840 O.co2  57  GLU57      -0.2457
     63  N         47.2400   44.8710   14.0700 N.3    77  THR77      -0.1203
     64  CA        48.2890   43.8410   14.0810 C.3    77  THR77       0.1994
     65  C         48.1760   42.6490   15.0200 C.2    77  THR77       0.2618
     66  O         49.0120   41.7500   14.9650 O.2    77  THR77      -0.2717
     67  CB        49.6450   44.4950   14.3590 C.3    77  THR77       0.1784
     68  OG1       49.6030   45.1740   15.6260 O.3    77  THR77      -0.2211
     69  CG2       49.9160   45.5800   13.2810 C.3    77  THR77       0.0376
     70  N         47.1590   42.6270   15.8730 N.am   78  ILE78      -0.1965
     71  CA        46.9790   41.5540   16.8600 C.3    78  ILE78       0.1727
     72  C         47.0360   40.0690   16.4610 C.2    78  ILE78       0.2616
     73  O         47.4340   39.2440   17.2730 O.2    78  ILE78      -0.2715
     74  CB        45.6780   41.7710   17.6490 C.3    78  ILE78       0.0290
     75  CG1       44.4800   41.7010   16.7100 C.3    78  ILE78       0.0022
     76  CG2       45.7260   43.1130   18.3560 C.3    78  ILE78       0.0023
     77  CD1       43.1580   41.7940   17.4210 C.3    78  ILE78       0.0001
     78  N         46.6480   39.7050   15.2420 N.am   79  TRP79      -0.1974
     79  CA        46.6960   38.2870   14.8490 C.3    79  TRP79       0.1640
     80  C         47.8540   37.9020   13.9350 C.2    79  TRP79       0.2290
     81  O         47.8950   36.7930   13.4080 O.2    79  TRP79      -0.2864
     82  CB        45.3860   37.8420   14.1740 C.3    79  TRP79       0.0576
     83  CG        44.2630   37.6300   15.1290 C.ar   79  TRP79       0.0006
     84  CD1       43.2760   38.5180   15.4340 C.ar   79  TRP79       0.0946
     85  CD2       44.0800   36.5070   16.0130 C.ar   79  TRP79       0.0152
     86  NE1       42.4890   38.0310   16.4670 N.ar   79  TRP79      -0.2442
     87  CE2       42.9620   36.8060   16.8340 C.ar   79  TRP79       0.0810
     88  CE3       44.7530   35.2920   16.1920 C.ar   79  TRP79       0.0012
     89  CZ2       42.5110   35.9250   17.8170 C.ar   79  TRP79       0.0191
     90  CZ3       44.2930   34.4200   17.1770 C.ar   79  TRP79       0.0001
     91  CH2       43.1870   34.7440   17.9720 C.ar   79  TRP79       0.0015
     92  N         51.1270   37.1880   14.5260 N.3    81  GLU81      -0.1231
     93  CA        51.9360   36.0620   15.0110 C.3    81  GLU81       0.1699
     94  C         51.3310   34.6650   14.8680 C.2    81  GLU81       0.2592
     95  O         51.9660   33.6890   15.2370 O.2    81  GLU81      -0.2718
     96  CB        52.3290   36.3010   16.4830 C.3    81  GLU81       0.0402
     97  CG        51.6540   37.5270   17.1010 C.3    81  GLU81       0.1161
     98  CD        52.5860   38.3410   17.9870 C.2    81  GLU81       0.3649
     99  OE1       52.3650   39.5630   18.1150 O.co2  81  GLU81      -0.2457
    100  OE2       53.5350   37.7670   18.5600 O.co2  81  GLU81      -0.2457
    101  N         50.1150   34.5750   14.3290 N.am   82  TRP82      -0.1976
    102  CA        49.4160   33.3000   14.1520 C.3    82  TRP82       0.1640
    103  C         49.0860   32.9160   12.7180 C.2    82  TRP82       0.2290
    104  O         48.8660   31.7500   12.4200 O.2    82  TRP82      -0.2864
    105  CB        48.1160   33.3090   14.9480 C.3    82  TRP82       0.0576
    106  CG        48.2690   33.1130   16.4100 C.ar   82  TRP82       0.0006
    107  CD1       47.4450   33.6010   17.3800 C.ar   82  TRP82       0.0946
    108  CD2       49.2600   32.3220   17.0860 C.ar   82  TRP82       0.0152
    109  NE1       47.8540   33.1640   18.6260 N.ar   82  TRP82      -0.2442
    110  CE2       48.9580   32.3800   18.4720 C.ar   82  TRP82       0.0810
    111  CE3       50.3590   31.5670   16.6630 C.ar   82  TRP82       0.0012
    112  CZ2       49.7280   31.7150   19.4270 C.ar   82  TRP82       0.0191
    113  CZ3       51.1210   30.9050   17.6230 C.ar   82  TRP82       0.0001
    114  CH2       50.7970   30.9840   18.9850 C.ar   82  TRP82       0.0015
    115  N         45.0780   28.4780   16.1660 N.3   142  LEU142     -0.1245
    116  CA        44.9700   28.4760   17.6170 C.3   142  LEU142      0.1561
    117  C         43.5090   28.1200   17.8940 C.2   142  LEU142      0.2260
    118  O         42.6130   28.5240   17.1490 O.2   142  LEU142     -0.2867
    119  CB        45.3190   29.8590   18.1900 C.3   142  LEU142      0.0270
    120  CG        45.6740   29.9280   19.6820 C.3   142  LEU142      0.0019
    121  CD1       46.9650   29.1630   19.9470 C.3   142  LEU142      0.0001
    122  CD2       45.8400   31.3860   20.1150 C.3   142  LEU142      0.0001
    123  N         39.4520   30.7500   22.1130 N.3   145  CYS145     -0.1221
    124  CA        39.5720   30.9750   23.5430 C.3   145  CYS145      0.1808
    125  C         38.1850   31.3560   24.0420 C.2   145  CYS145      0.2601
    126  O         37.6630   30.7300   24.9870 O.2   145  CYS145     -0.2717
    127  CB        40.5990   32.0580   23.8090 C.3   145  CYS145      0.0970
    128  SG        42.2030   31.4220   23.3590 S.3   145  CYS145     -0.0800
    129  N         37.5840   32.3790   23.4340 N.am  146  HIS146     -0.1975
    130  CA        36.2180   32.7100   23.8070 C.3   146  HIS146      0.1656
    131  C         35.5350   31.7260   22.8660 C.2   146  HIS146      0.2291
    132  O         35.3910   31.9570   21.6790 O.2   146  HIS146     -0.2864
    133  CB        35.8670   34.1800   23.4990 C.3   146  HIS146      0.0771
    134  CG        36.4930   34.7250   22.2450 C.ar  146  HIS146      0.0820
    135  ND1       35.7740   34.9630   21.0900 N.ar  146  HIS146     -0.2267
    136  CD2       37.7550   35.1400   21.9920 C.ar  146  HIS146      0.1154
    137  CE1       36.5680   35.5060   20.1840 C.ar  146  HIS146      0.1986
    138  NE2       37.7760   35.6240   20.7050 N.ar  146  HIS146     -0.2212
    139  N         44.1060   34.7980   29.1130 N.3   168  ASP168     -0.1239
    140  CA        45.3280   35.5070   29.4750 C.3   168  ASP168      0.1674
    141  C         44.7240   36.7530   30.1350 C.2   168  ASP168      0.2266
    142  O         44.2840   37.6760   29.4390 O.2   168  ASP168     -0.2867
    143  CB        46.1170   35.9150   28.2220 C.3   168  ASP168      0.1410
    144  CG        47.4000   36.6760   28.5500 C.2   168  ASP168      0.3668
    145  OD1       47.4210   37.4230   29.5610 O.co2 168  ASP168     -0.2456
    146  OD2       48.3820   36.5400   27.7800 O.co2 168  ASP168     -0.2456
    147  N         46.6890   40.4200   29.0440 N.3   171  LEU171     -0.1231
    148  CA        46.5440   40.8630   27.6650 C.3   171  LEU171      0.1693
    149  C         45.1600   40.6680   27.0480 C.2   171  LEU171      0.2592
    150  O         44.4940   41.6420   26.6930 O.2   171  LEU171     -0.2718
    151  CB        47.5820   40.1770   26.7720 C.3   171  LEU171      0.0284
    152  CG        49.0730   40.4360   27.0100 C.3   171  LEU171      0.0019
    153  CD1       49.8610   39.6940   25.9400 C.3   171  LEU171      0.0001
    154  CD2       49.3830   41.9380   26.9620 C.3   171  LEU171      0.0001
    155  N         44.7170   39.4190   26.9420 N.am  172  GLY172     -0.1957
    156  CA        43.4360   39.1400   26.3140 C.3   172  GLY172      0.1869
    157  C         42.1250   39.5410   26.9520 C.2   172  GLY172      0.2309
    158  O         41.2610   40.0770   26.2750 O.2   172  GLY172     -0.2863
    159  N         40.5170   42.9210   26.4370 N.3   175  PHE175     -0.1227
    160  CA        40.1650   42.9360   25.0340 C.3   175  PHE175      0.1736
    161  C         38.8600   42.1620   24.8150 C.2   175  PHE175      0.2595
    162  O         37.9010   42.6840   24.2550 O.2   175  PHE175     -0.2718
    163  CB        41.3170   42.3130   24.2440 C.3   175  PHE175      0.0547
    164  CG        41.5920   42.9730   22.9220 C.ar  175  PHE175     -0.0202
    165  CD1       40.9230   42.5640   21.7690 C.ar  175  PHE175     -0.0042
    166  CD2       42.5580   43.9770   22.8200 C.ar  175  PHE175     -0.0042
    167  CE1       41.2170   43.1360   20.5310 C.ar  175  PHE175     -0.0003
    168  CE2       42.8630   44.5590   21.5870 C.ar  175  PHE175     -0.0003
    169  CZ        42.1930   44.1400   20.4410 C.ar  175  PHE175     -0.0000
    170  N         38.8280   40.9160   25.2690 N.am  176  ASN176     -0.1974
    171  CA        37.6500   40.0630   25.1100 C.3   176  ASN176      0.1688
    172  C         36.3820   40.6130   25.7340 C.2   176  ASN176      0.2292
    173  O         35.2920   40.4780   25.1700 O.2   176  ASN176     -0.2864
    174  CB        37.9220   38.6740   25.6920 C.3   176  ASN176      0.1181
    175  CG        39.0880   37.9670   25.0140 C.2   176  ASN176      0.2629
    176  OD1       39.8490   37.2460   25.6690 O.2   176  ASN176     -0.2716
    177  ND2       39.2200   38.1480   23.6980 N.am  176  ASN176     -0.0877
    178  N         50.5870   35.1560   32.9790 N.3   208  TYR208     -0.1241
    179  CA        51.9070   34.6550   32.5770 C.3   208  TYR208      0.1605
    180  C         53.0280   35.1880   33.4730 C.2   208  TYR208      0.2264
    181  O         52.9890   36.3400   33.9050 O.2   208  TYR208     -0.2867
    182  CB        52.1810   35.0130   31.1140 C.3   208  TYR208      0.0534
    183  CG        51.4480   34.1140   30.1320 C.ar  208  TYR208     -0.0201
    184  CD1       51.9320   32.8330   29.8280 C.ar  208  TYR208     -0.0009
    185  CD2       50.2660   34.5330   29.5150 C.ar  208  TYR208     -0.0009
    186  CE1       51.2580   32.0010   28.9330 C.ar  208  TYR208      0.0417
    187  CE2       49.5850   33.7090   28.6220 C.ar  208  TYR208      0.0417
    188  CZ        50.0850   32.4450   28.3340 C.ar  208  TYR208      0.1957
    189  OH        49.4160   31.6320   27.4420 O.3   208  TYR208     -0.2866
    190  N         50.0480   49.9850   29.3780 N.3   257  ILE257     -0.1231
    191  CA        51.1360   49.1920   29.9220 C.3   257  ILE257      0.1692
    192  C         51.5860   48.1660   28.9110 C.2   257  ILE257      0.2592
    193  O         50.8110   47.3060   28.5160 O.2   257  ILE257     -0.2718
    194  CB        50.6830   48.4720   31.1770 C.3   257  ILE257      0.0266
    195  CG1       50.0900   49.4850   32.1530 C.3   257  ILE257      0.0019
    196  CG2       51.8430   47.7250   31.7950 C.3   257  ILE257      0.0020
    197  CD1       49.4620   48.8620   33.3690 C.3   257  ILE257      0.0001
    198  N         52.8450   48.2610   28.5030 N.am  258  LYS258     -0.1966
    199  CA        53.4180   47.3560   27.5140 C.3   258  LYS258      0.1728
    200  C         53.7720   45.9900   28.1240 C.2   258  LYS258      0.2616
    201  O         54.1910   45.9080   29.2710 O.2   258  LYS258     -0.2715
    202  CB        54.6600   48.0210   26.9040 C.3   258  LYS258      0.0311
    203  CG        54.7250   47.9920   25.3770 C.3   258  LYS258      0.0038
    204  CD        55.0010   46.5840   24.8620 C.3   258  LYS258      0.0206
    205  CE        55.0720   46.5380   23.3510 C.3   258  LYS258      0.1093
    206  NZ        55.2590   45.1410   22.9070 N.3   258  LYS258     -0.1314
    207  N         53.5930   44.9190   27.3570 N.am  259  ALA259     -0.1977
    208  CA        53.8970   43.5730   27.8420 C.3   259  ALA259      0.1597
    209  C         54.0020   42.5740   26.6950 C.2   259  ALA259      0.2287
    210  O         53.1410   42.5280   25.8180 O.2   259  ALA259     -0.2864
    211  CB        52.8350   43.1240   28.8290 C.3   259  ALA259      0.0319
    212  N         53.8170   39.2390   24.3930 N.3   261  VAL261     -0.1231
    213  CA        52.8140   38.1900   24.2100 C.3   261  VAL261      0.1692
    214  C         53.5040   36.8350   24.1540 C.2   261  VAL261      0.2591
    215  O         54.6410   36.7260   23.6820 O.2   261  VAL261     -0.2718
    216  CB        52.0260   38.3380   22.8810 C.3   261  VAL261      0.0266
    217  CG1       50.8230   37.4090   22.8950 C.3   261  VAL261      0.0020
    218  CG2       51.5980   39.7690   22.6580 C.3   261  VAL261      0.0020
    219  N         52.8130   35.8110   24.6450 N.am  262  ALA262     -0.1980
    220  CA        53.3330   34.4540   24.6290 C.3   262  ALA262      0.1597
    221  C         52.8450   33.8480   23.3170 C.2   262  ALA262      0.2287
    222  O         51.6490   33.8750   23.0170 O.2   262  ALA262     -0.2864
    223  CB        52.7960   33.6730   25.8130 C.3   262  ALA262      0.0319
@<TRIPOS>BOND
     1   104   103    2
     2   103   102    1
     3    69    67    1
     4    81    80    2
     5    80    79    1
     6    63    64    1
     7    64    67    1
     8    64    65    1
     9   102   101    1
    10   102   105    1
    11    82    79    1
    12    82    83    1
    13    57    56    2
    14   101    94   am
    15    67    68    1
    16    92    93    1
    17    79    78    1
    18    94    93    1
    19    94    95    2
    20    54    55    1
    21   105   106    1
    22    66    65    2
    23    56    55    1
    24    55    58    1
    25    93    96    1
    26    65    70   am
    27    83    84   ar
    28    83    85   ar
    29    78    72   am
    30    84    86   ar
    31    70    71    1
    32    85    88   ar
    33    85    87   ar
    34   115   116    1
    35    88    90   ar
    36    58    59    1
    37   106   108   ar
    38   106   107   ar
    39    59    60    1
    40    72    71    1
    41    72    73    2
    42    86    87   ar
    43    96    97    1
    44   111   108   ar
    45   111   113   ar
    46    75    77    1
    47    75    74    1
    48    87    89   ar
    49    71    74    1
    50    51    50    2
    51   108   110   ar
    52    97    98    1
    53   118   117    2
    54    90    91   ar
    55   107   109   ar
    56    49    48    1
    57    49    50    1
    58    49    52    1
    59   116   117    1
    60   116   119    1
    61   113   114   ar
    62    74    76    1
    63    60    62   ar
    64    60    61   ar
    65    89    91   ar
    66    98    99   ar
    67    98   100   ar
    68    53    52    1
    69   119   120    1
    70   110   109   ar
    71   110   112   ar
    72   114   112   ar
    73   120   121    1
    74   120   122    1
    75   137   138   ar
    76   137   135   ar
    77   169   167   ar
    78   169   168   ar
    79   167   165   ar
    80   138   136   ar
    81   135   134   ar
    82    41    40    2
    83    42    43    1
    84    42    39    1
    85    40    39    1
    86   168   166   ar
    87   132   131    2
    88    44    43   ar
    89    44    46   ar
    90   165   164   ar
    91    43    45   ar
    92   136   134   ar
    93   123   124    1
    94    46    47   ar
    95   134   133    1
    96    39    38    1
    97    11     9    1
    98    45    47   ar
    99     9    10    1
   100     9     8    2
   101   218   216    1
   102   166   164   ar
   103     8     7    1
   104   131   130    1
   105   216   217    1
   106   216   213    1
   107   206   205    1
   108   164   163    1
   109   222   221    2
   110     7     6    1
   111   221   220    1
   112   205   204    1
   113   128   127    1
   114   129   130    1
   115   129   125   am
   116   133   130    1
   117    38    34   am
   118   124   127    1
   119   124   125    1
   120   215   214    2
   121   177   175   am
   122   125   126    2
   123   214   213    1
   124   214   219   am
   125   213   212    1
   126   163   160    1
   127   162   161    2
   128     6     5    1
   129   220   219    1
   130   220   223    1
   131     4     3    2
   132    34    35    2
   133    34    33    1
   134   161   160    1
   135   161   170   am
   136     5     2    1
   137   204   203    1
   138   175   176    2
   139   175   174    1
   140   160   159    1
   141   171   170    1
   142   171   174    1
   143   171   172    1
   144   173   172    2
   145     3     2    1
   146   203   202    1
   147   210   209    2
   148     2     1    1
   149   153   152    1
   150    33    36    1
   151    33    32    1
   152    27    26    1
   153    27    28    1
   154   158   157    2
   155   156   155    1
   156   156   157    1
   157    36    37    1
   158    26    25    1
   159    31    29    1
   160   150   149    2
   161   209   208    1
   162   151   152    1
   163   151   148    1
   164   202   199    1
   165    32    23   am
   166   155   149   am
   167   154   152    1
   168   149   148    1
   169    28    29    2
   170    24    23    2
   171    29    30    1
   172   207   208    1
   173   207   200   am
   174    23    22    1
   175   189   188    1
   176   199   200    1
   177   199   198    1
   178   148   147    1
   179    25    22    1
   180   146   144   ar
   181   208   211    1
   182   200   201    2
   183   143   144    1
   184   143   140    1
   185   188   187   ar
   186   188   186   ar
   187    22    21    1
   188   198   192   am
   189   193   192    2
   190   144   145   ar
   191   187   185   ar
   192   192   191    1
   193   186   184   ar
   194    19    20    1
   195    19    18    1
   196   139   140    1
   197   190   191    1
   198   142   141    2
   199   140   141    1
   200   185   183   ar
   201    21    14   am
   202   184   183   ar
   203   191   194    1
   204    15    14    2
   205   183   182    1
   206    17    18    1
   207    17    16    1
   208    14    13    1
   209   182   179    1
   210   194   196    1
   211   194   195    1
   212    16    13    1
   213    13    12    1
   214   195   197    1
   215   179   178    1
   216   179   180    1
   217   180   181    2
