@<TRIPOS>MOLECULE
tmp/1juyA01.pdb
 164 158 0 0 0
SMALL
GASTEIGER

@<TRIPOS>ATOM
      1  N         -5.7400   47.3020   55.2950 N.3    11  TRP11      -0.1227
      2  CA        -6.7590   48.3060   54.9130 C.3    11  TRP11       0.1737
      3  C         -6.6980   48.6260   53.3970 C.2    11  TRP11       0.2596
      4  O         -6.7340   49.8120   52.9730 O.2    11  TRP11      -0.2718
      5  CB        -6.6120   49.6180   55.7150 C.3    11  TRP11       0.0564
      6  CG        -6.6670   49.4450   57.1960 C.ar   11  TRP11       0.0003
      7  CD1       -7.7940   49.3810   57.9930 C.ar   11  TRP11       0.0946
      8  CD2       -5.5500   49.2520   58.0670 C.ar   11  TRP11       0.0152
      9  NE1       -7.4310   49.1460   59.2980 N.ar   11  TRP11      -0.2442
     10  CE2       -6.0610   49.0660   59.3710 C.ar   11  TRP11       0.0810
     11  CE3       -4.1640   49.2070   57.8690 C.ar   11  TRP11       0.0012
     12  CZ2       -5.2270   48.8410   60.4780 C.ar   11  TRP11       0.0191
     13  CZ3       -3.3340   48.9810   58.9610 C.ar   11  TRP11       0.0001
     14  CH2       -3.8680   48.8010   60.2560 C.ar   11  TRP11       0.0015
     15  N         -6.6320   47.5730   52.5890 N.am   12  GLY12      -0.1942
     16  CA        -6.5460   47.7730   51.1570 C.3    12  GLY12       0.2014
     17  C         -5.1740   48.2790   50.7060 C.2    12  GLY12       0.2638
     18  O         -4.3180   48.6350   51.5330 O.2    12  GLY12      -0.2714
     19  N         -4.9560   48.2740   49.3870 N.am   13  ASP13      -0.1971
     20  CA        -3.7160   48.7630   48.7790 C.3    13  ASP13       0.1709
     21  C         -2.4750   47.9760   49.1050 C.2    13  ASP13       0.2293
     22  O         -1.3590   48.4580   48.9600 O.2    13  ASP13      -0.2864
     23  CB        -3.5380   50.2270   49.1350 C.3    13  ASP13       0.1436
     24  CG        -4.7460   51.0370   48.7520 C.2    13  ASP13       0.3671
     25  OD1       -5.6530   50.4760   48.1120 O.co2  13  ASP13      -0.2456
     26  OD2       -4.8140   52.2220   49.0760 O.co2  13  ASP13      -0.2456
     27  N        -14.1110   51.8190   43.6280 N.3    38  ASN38      -0.1225
     28  CA       -13.3560   52.4710   44.6830 C.3    38  ASN38       0.1785
     29  C        -12.0140   51.7540   44.6330 C.2    38  ASN38       0.2597
     30  O        -10.9760   52.3140   44.9720 O.2    38  ASN38      -0.2718
     31  CB       -14.0350   52.3190   46.0440 C.3    38  ASN38       0.1169
     32  CG       -14.6490   50.9590   46.2480 C.2    38  ASN38       0.2627
     33  OD1      -14.7150   50.1260   45.3220 O.2    38  ASN38      -0.2716
     34  ND2      -15.1280   50.7200   47.4530 N.am   38  ASN38      -0.0877
     35  N        -12.0220   50.5110   44.1710 N.am   39  ALA39      -0.1979
     36  CA       -10.7770   49.7560   44.0460 C.3    39  ALA39       0.1597
     37  C         -9.8970   50.4130   42.9900 C.2    39  ALA39       0.2287
     38  O        -10.3810   51.0630   42.0910 O.2    39  ALA39      -0.2864
     39  CB       -11.0530   48.2970   43.6910 C.3    39  ALA39       0.0319
     40  N        -16.3600   59.8890   56.6400 N.3   126  ILE126     -0.1231
     41  CA       -15.6600   58.6100   56.4850 C.3   126  ILE126      0.1692
     42  C        -14.3680   58.7150   55.6480 C.2   126  ILE126      0.2593
     43  O        -13.3020   58.1650   56.0170 O.2   126  ILE126     -0.2718
     44  CB       -16.5970   57.5510   55.8460 C.3   126  ILE126      0.0266
     45  CG1      -17.8060   57.3100   56.7510 C.3   126  ILE126      0.0019
     46  CG2      -15.8540   56.2460   55.5580 C.3   126  ILE126      0.0020
     47  CD1      -18.6810   56.1970   56.2810 C.3   126  ILE126      0.0001
     48  N        -14.4490   59.4660   54.5540 N.am  127  GLY127     -0.1942
     49  CA       -13.3080   59.6020   53.6760 C.3   127  GLY127      0.2014
     50  C        -13.5770   58.6820   52.5140 C.2   127  GLY127      0.2640
     51  O        -12.6970   57.9800   52.0090 O.2   127  GLY127     -0.2714
     52  N        -14.8370   58.6590   52.1130 N.am  128  THR128     -0.1936
     53  CA       -15.2620   57.8310   51.0050 C.3   128  THR128      0.2028
     54  C        -14.5790   58.2490   49.6920 C.2   128  THR128      0.2642
     55  O        -14.1670   59.4030   49.5410 O.2   128  THR128     -0.2714
     56  CB       -16.7580   57.9280   50.8750 C.3   128  THR128      0.1808
     57  OG1      -17.3450   57.4520   52.0850 O.3   128  THR128     -0.2208
     58  CG2      -17.2390   57.0730   49.7630 C.3   128  THR128      0.0379
     59  N        -14.4160   57.2930   48.7770 N.am  129  THR129     -0.1950
     60  CA       -13.8090   57.5540   47.4720 C.3   129  THR129      0.1897
     61  C        -14.6970   58.4430   46.6020 C.2   129  THR129      0.2313
     62  O        -14.2510   58.9140   45.5580 O.2   129  THR129     -0.2863
     63  CB       -13.4660   56.2350   46.6830 C.3   129  THR129      0.1794
     64  OG1      -14.6180   55.3800   46.6130 O.3   129  THR129     -0.2208
     65  CG2      -12.3030   55.4990   47.3280 C.3   129  THR129      0.0378
     66  N        -20.5160   54.1060   46.2360 N.3   133  ILE133     -0.1231
     67  CA       -20.5890   52.6930   46.6260 C.3   133  ILE133      0.1692
     68  C        -21.6740   52.4570   47.6690 C.2   133  ILE133      0.2592
     69  O        -22.5580   51.5980   47.5140 O.2   133  ILE133     -0.2718
     70  CB       -19.2470   52.1900   47.2110 C.3   133  ILE133      0.0266
     71  CG1      -18.0700   52.6980   46.3740 C.3   133  ILE133      0.0019
     72  CG2      -19.1970   50.6810   47.1860 C.3   133  ILE133      0.0020
     73  CD1      -18.0970   52.2710   44.9120 C.3   133  ILE133      0.0001
     74  N        -21.6060   53.2380   48.7350 N.am  134  GLY134     -0.1957
     75  CA       -22.5620   53.1050   49.8180 C.3   134  GLY134      0.1869
     76  C        -24.0090   53.1690   49.3940 C.2   134  GLY134      0.2309
     77  O        -24.7440   52.1820   49.5650 O.2   134  GLY134     -0.2863
     78  N        -10.6030   46.4590   48.4620 N.3   224  GLN224     -0.1245
     79  CA       -10.4040   47.0390   49.7830 C.3   224  GLN224      0.1566
     80  C         -9.6540   46.0450   50.6780 C.2   224  GLN224      0.2260
     81  O         -8.9150   45.1990   50.1670 O.2   224  GLN224     -0.2867
     82  CB       -11.7420   47.4520   50.4090 C.3   224  GLN224      0.0367
     83  CG       -12.4150   48.6510   49.7630 C.3   224  GLN224      0.0905
     84  CD       -13.0400   48.3370   48.4060 C.2   224  GLN224      0.2608
     85  OE1      -14.0670   47.6670   48.3280 O.2   224  GLN224     -0.2717
     86  NE2      -12.4360   48.8590   47.3370 N.am  224  GLN224     -0.0878
     87  N        -11.7680   46.9510   56.6330 N.3   228  LEU228     -0.1245
     88  CA       -12.7110   47.8530   55.9820 C.3   228  LEU228      0.1561
     89  C        -14.0370   47.0940   55.8220 C.2   228  LEU228      0.2260
     90  O        -15.0420   47.6410   55.3230 O.2   228  LEU228     -0.2867
     91  CB       -12.1490   48.3320   54.6360 C.3   228  LEU228      0.0270
     92  CG       -10.9520   49.3260   54.6480 C.3   228  LEU228      0.0019
     93  CD1      -10.3220   49.4400   53.2410 C.3   228  LEU228      0.0001
     94  CD2      -11.3650   50.7350   55.1300 C.3   228  LEU228      0.0001
     95  N        -16.0610   53.6730   59.9890 N.3   237  TYR237     -0.1227
     96  CA       -15.0490   54.0840   59.0400 C.3   237  TYR237      0.1736
     97  C        -14.6690   52.8250   58.2920 C.2   237  TYR237      0.2595
     98  O        -13.5540   52.2830   58.4350 O.2   237  TYR237     -0.2718
     99  CB       -13.8570   54.7040   59.7580 C.3   237  TYR237      0.0548
    100  CG       -14.2680   55.9670   60.4360 C.ar  237  TYR237     -0.0200
    101  CD1      -14.3000   57.1820   59.7400 C.ar  237  TYR237     -0.0009
    102  CD2      -14.7430   55.9370   61.7440 C.ar  237  TYR237     -0.0009
    103  CE1      -14.8090   58.3320   60.3310 C.ar  237  TYR237      0.0417
    104  CE2      -15.2490   57.0760   62.3450 C.ar  237  TYR237      0.0417
    105  CZ       -15.2910   58.2630   61.6380 C.ar  237  TYR237      0.1957
    106  OH       -15.8670   59.3430   62.2540 O.3   237  TYR237     -0.2866
    107  N        -15.6400   52.3490   57.5230 N.am  238  VAL238     -0.1966
    108  CA       -15.4830   51.1450   56.7250 C.3   238  VAL238      0.1727
    109  C        -16.0340   51.3300   55.2950 C.2   238  VAL238      0.2617
    110  O        -16.5420   52.4030   54.9190 O.2   238  VAL238     -0.2715
    111  CB       -16.2530   49.9500   57.3870 C.3   238  VAL238      0.0290
    112  CG1      -15.5860   49.5210   58.6870 C.3   238  VAL238      0.0023
    113  CG2      -17.7140   50.2980   57.5830 C.3   238  VAL238      0.0023
    114  N        -15.9260   50.2760   54.4960 N.am  239  THR239     -0.1937
    115  CA       -16.4810   50.2970   53.1690 C.3   239  THR239      0.2028
    116  C        -17.7870   49.5010   53.3790 C.2   239  THR239      0.2642
    117  O        -17.8550   48.6580   54.2710 O.2   239  THR239     -0.2714
    118  CB       -15.4990   49.6470   52.1360 C.3   239  THR239      0.1808
    119  OG1      -15.7690   50.1440   50.8070 O.3   239  THR239     -0.2208
    120  CG2      -15.5900   48.1130   52.1780 C.3   239  THR239      0.0379
    121  N        -18.8150   49.7730   52.5730 N.am  240  SER240     -0.1949
    122  CA       -20.1340   49.1200   52.6820 C.3   240  SER240      0.1924
    123  C        -20.2720   47.7030   52.1790 C.2   240  SER240      0.2314
    124  O        -21.4010   47.2210   52.0050 O.2   240  SER240     -0.2863
    125  CB       -21.1980   49.9750   52.0260 C.3   240  SER240      0.2116
    126  OG       -21.0000   51.3150   52.4230 O.3   240  SER240     -0.2180
    127  N         -3.3710   53.3860   55.4640 N.3   272  ARG272     -0.1231
    128  CA        -4.7970   53.6000   55.5600 C.3   272  ARG272      0.1694
    129  C         -5.0430   54.8040   54.6470 C.2   272  ARG272      0.2592
    130  O         -4.1690   55.6390   54.5000 O.2   272  ARG272     -0.2718
    131  CB        -5.2490   53.9280   57.0000 C.3   272  ARG272      0.0321
    132  CG        -5.8760   52.7700   57.7820 C.3   272  ARG272      0.0489
    133  CD        -6.9320   53.2510   58.8130 C.3   272  ARG272      0.2205
    134  NE        -8.2900   53.3440   58.2630 N.pl3 272  ARG272     -0.0865
    135  CZ        -9.3560   52.7960   58.8640 C.cat 272  ARG272      0.5346
    136  NH1       -9.2500   52.1430   60.0200 N.pl3 272  ARG272      0.1354
    137  NH2      -10.5400   52.8320   58.2670 N.pl3 272  ARG272      0.1354
    138  N         -6.1850   54.8170   53.9720 N.am  273  VAL273     -0.1966
    139  CA        -6.6160   55.9160   53.1260 C.3   273  VAL273      0.1727
    140  C         -8.0720   56.0850   53.5770 C.2   273  VAL273      0.2617
    141  O         -8.9240   55.1820   53.4320 O.2   273  VAL273     -0.2715
    142  CB        -6.4910   55.6320   51.5850 C.3   273  VAL273      0.0290
    143  CG1       -7.3780   54.4780   51.1340 C.3   273  VAL273      0.0023
    144  CG2       -6.8400   56.9170   50.8030 C.3   273  VAL273      0.0023
    145  N         -8.3440   57.2450   54.1570 N.am  274  GLY274     -0.1940
    146  CA        -9.6530   57.5110   54.7140 C.3   274  GLY274      0.2014
    147  C         -9.4380   57.6700   56.2280 C.2   274  GLY274      0.2638
    148  O         -8.3010   57.5310   56.7540 O.2   274  GLY274     -0.2714
    149  N        -10.5310   57.9640   56.9290 N.am  275  ALA275     -0.1977
    150  CA       -10.5030   58.1780   58.3720 C.3   275  ALA275      0.1597
    151  C        -10.6640   56.8530   59.1380 C.2   275  ALA275      0.2287
    152  O        -11.1750   55.8780   58.6040 O.2   275  ALA275     -0.2864
    153  CB       -11.6100   59.1430   58.7270 C.3   275  ALA275      0.0319
    154  N         -5.2120   60.4930   46.9110 N.3   303  ARG303     -0.1245
    155  CA        -4.9840   61.0060   48.2550 C.3   303  ARG303      0.1563
    156  C         -3.7400   60.3600   48.8220 C.2   303  ARG303      0.2260
    157  O         -3.3660   59.2520   48.4380 O.2   303  ARG303     -0.2867
    158  CB        -6.1720   60.7050   49.1640 C.3   303  ARG303      0.0307
    159  CG        -7.4390   61.4740   48.8030 C.3   303  ARG303      0.0489
    160  CD        -8.6110   61.0790   49.6760 C.3   303  ARG303      0.2205
    161  NE        -8.9330   59.6700   49.4990 N.pl3 303  ARG303     -0.0865
    162  CZ        -9.7880   59.0390   50.2960 C.cat 303  ARG303      0.5346
    163  NH1      -10.3910   59.6770   51.2810 N.pl3 303  ARG303      0.1354
    164  NH2      -10.0190   57.7540   50.1110 N.pl3 303  ARG303      0.1354
@<TRIPOS>BOND
     1    38    37    2
     2    37    36    1
     3    27    28    1
     4    39    36    1
     5    36    35    1
     6    35    29   am
     7    29    28    1
     8    29    30    2
     9    28    31    1
    10    73    71    1
    11    33    32    2
    12    62    61    2
    13    31    32    1
    14    66    67    1
    15    32    34   am
    16    71    70    1
    17    61    60    1
    18    64    63    1
    19    67    70    1
    20    67    68    1
    21    63    65    1
    22    63    60    1
    23   154   155    1
    24    72    70    1
    25    86    84   am
    26    60    59    1
    27    69    68    2
    28    68    74   am
    29    25    24   ar
    30   155   156    1
    31   155   158    1
    32    85    84    2
    33    84    83    1
    34   157   156    2
    35    78    79    1
    36    74    75    1
    37    24    26   ar
    38    24    23    1
    39    59    54   am
    40    20    21    1
    41    20    23    1
    42    20    19    1
    43   159   158    1
    44   159   160    1
    45    22    21    2
    46    19    17   am
    47    76    77    2
    48    76    75    1
    49   161   160    1
    50   161   162    2
    51    55    54    2
    52    54    53    1
    53    58    56    1
    54    83    82    1
    55    79    82    1
    56    79    80    1
    57   164   162    1
    58    81    80    2
    59   162   163    1
    60    17    16    1
    61    17    18    2
    62   144   142    1
    63   119   118    1
    64    56    53    1
    65    56    57    1
    66    53    52    1
    67   143   142    1
    68    16    15    1
    69   142   139    1
    70   124   123    2
    71    51    50    2
    72   125   126    1
    73   125   122    1
    74    52    50   am
    75   118   120    1
    76   118   115    1
    77   123   122    1
    78    50    49    1
    79   121   122    1
    80   121   116   am
    81    15     3   am
    82     4     3    2
    83   139   140    1
    84   139   138    1
    85   115   116    1
    86   115   114    1
    87    93    92    1
    88   116   117    2
    89     3     2    1
    90   141   140    2
    91   140   145   am
    92    49    48    1
    93   138   129   am
    94   145   146    1
    95   114   109   am
    96   130   129    2
    97    48    42   am
    98    91    92    1
    99    91    88    1
   100   129   128    1
   101    92    94    1
   102   146   147    1
   103     2     1    1
   104     2     5    1
   105   110   109    2
   106   109   108    1
   107    90    89    2
   108   127   128    1
   109    46    44    1
   110   128   131    1
   111    42    43    2
   112    42    41    1
   113     5     6    1
   114    89    88    1
   115    44    41    1
   116    44    45    1
   117    88    87    1
   118   147   148    2
   119   147   149   am
   120    47    45    1
   121    41    40    1
   122   108   111    1
   123   108   107    1
   124   149   150    1
   125   131   132    1
   126     6     7   ar
   127     6     8   ar
   128   111   113    1
   129   111   112    1
   130   107    97   am
   131   132   133    1
   132    11     8   ar
   133    11    13   ar
   134     7     9   ar
   135     8    10   ar
   136   134   133    1
   137   134   135    2
   138   137   135    1
   139    97    98    2
   140    97    96    1
   141   150   153    1
   142   150   151    1
   143   152   151    2
   144   135   136    1
   145    13    14   ar
   146    96    99    1
   147    96    95    1
   148     9    10   ar
   149    10    12   ar
   150   101   103   ar
   151   101   100   ar
   152    99   100    1
   153    14    12   ar
   154   103   105   ar
   155   100   102   ar
   156   105   106    1
   157   105   104   ar
   158   102   104   ar
