@<TRIPOS>MOLECULE
tmp/1jv6A05.pdb
 99 97 0 0 0
SMALL
GASTEIGER

@<TRIPOS>ATOM
      1  N         45.4280   48.8680   14.4130 N.3   109  TYR109     -0.1241
      2  CA        46.5260   47.9470   14.1820 C.3   109  TYR109      0.1605
      3  C         46.6020   46.7090   15.0660 C.2   109  TYR109      0.2264
      4  O         46.7990   45.6100   14.5640 O.2   109  TYR109     -0.2867
      5  CB        47.8500   48.7070   14.2890 C.3   109  TYR109      0.0534
      6  CG        48.9840   48.0890   13.5100 C.ar  109  TYR109     -0.0201
      7  CD1       49.2540   48.4900   12.2000 C.ar  109  TYR109     -0.0009
      8  CD2       49.7870   47.0940   14.0740 C.ar  109  TYR109     -0.0009
      9  CE1       50.2990   47.9160   11.4680 C.ar  109  TYR109      0.0417
     10  CE2       50.8330   46.5110   13.3500 C.ar  109  TYR109      0.0417
     11  CZ        51.0830   46.9270   12.0510 C.ar  109  TYR109      0.1957
     12  OH        52.1130   46.3560   11.3370 O.3   109  TYR109     -0.2866
     13  N         43.6620   44.1550   14.4350 N.3   112  ARG112     -0.1231
     14  CA        43.8300   43.5240   13.1390 C.3   112  ARG112      0.1694
     15  C         44.8860   42.4350   13.2350 C.2   112  ARG112      0.2592
     16  O         44.6980   41.3250   12.7370 O.2   112  ARG112     -0.2718
     17  CB        44.2310   44.5630   12.0970 C.3   112  ARG112      0.0321
     18  CG        44.6990   43.9590   10.7970 C.3   112  ARG112      0.0489
     19  CD        44.8920   45.0270    9.7450 C.3   112  ARG112      0.2205
     20  NE        43.6260   45.6700    9.4140 N.pl3 112  ARG112     -0.0865
     21  CZ        43.4730   46.5450    8.4270 C.cat 112  ARG112      0.5346
     22  NH1       44.5120   46.8780    7.6760 N.pl3 112  ARG112      0.1354
     23  NH2       42.2820   47.0840    8.1910 N.pl3 112  ARG112      0.1354
     24  N         45.9870   42.7580   13.9050 N.am  113  PHE113     -0.1976
     25  CA        47.0910   41.8250   14.0850 C.3   113  PHE113      0.1639
     26  C         46.6220   40.5240   14.7310 C.2   113  PHE113      0.2290
     27  O         46.9180   39.4360   14.2390 O.2   113  PHE113     -0.2864
     28  CB        48.1790   42.4550   14.9640 C.3   113  PHE113      0.0560
     29  CG        49.3620   41.5610   15.1870 C.ar  113  PHE113     -0.0200
     30  CD1       50.4560   41.6100   14.3310 C.ar  113  PHE113     -0.0042
     31  CD2       49.3570   40.6260   16.2150 C.ar  113  PHE113     -0.0042
     32  CE1       51.5240   40.7360   14.4930 C.ar  113  PHE113     -0.0003
     33  CE2       50.4160   39.7480   16.3860 C.ar  113  PHE113     -0.0003
     34  CZ        51.5040   39.8020   15.5230 C.ar  113  PHE113     -0.0000
     35  N         44.2470   38.4610   12.5100 N.3   116  TRP116     -0.1227
     36  CA        44.9720   37.7500   11.4670 C.3   116  TRP116      0.1737
     37  C         45.9320   36.6940   12.0200 C.2   116  TRP116      0.2595
     38  O         46.3030   35.7640   11.3060 O.2   116  TRP116     -0.2718
     39  CB        45.6900   38.7330   10.5490 C.3   116  TRP116      0.0564
     40  CG        44.7180   39.5330    9.7000 C.ar  116  TRP116      0.0003
     41  CD1       43.3710   39.3070    9.5550 C.ar  116  TRP116      0.0946
     42  CD2       45.0240   40.6500    8.8580 C.ar  116  TRP116      0.0152
     43  NE1       42.8260   40.2120    8.6750 N.ar  116  TRP116     -0.2442
     44  CE2       43.8170   41.0480    8.2320 C.ar  116  TRP116      0.0810
     45  CE3       46.2000   41.3560    8.5690 C.ar  116  TRP116      0.0012
     46  CZ2       43.7580   42.1150    7.3370 C.ar  116  TRP116      0.0191
     47  CZ3       46.1380   42.4160    7.6760 C.ar  116  TRP116      0.0001
     48  CH2       44.9250   42.7850    7.0710 C.ar  116  TRP116      0.0015
     49  N         46.3160   36.8190   13.2890 N.am  117  ALA117     -0.1980
     50  CA        47.1890   35.8210   13.8970 C.3   117  ALA117      0.1597
     51  C         46.3060   34.6040   14.1340 C.2   117  ALA117      0.2287
     52  O         46.7430   33.4620   13.9910 O.2   117  ALA117     -0.2864
     53  CB        47.7650   36.3290   15.2300 C.3   117  ALA117      0.0319
     54  N         45.7700   32.9500   10.8460 N.3   120  THR120     -0.1218
     55  CA        46.9540   32.1630   10.5060 C.3   120  THR120      0.1862
     56  C         47.0380   30.8980   11.3460 C.2   120  THR120      0.2287
     57  O         47.4110   29.8410   10.8450 O.2   120  THR120     -0.2866
     58  CB        48.2330   32.9880   10.6980 C.3   120  THR120      0.1770
     59  OG1       48.1330   34.1890    9.9250 O.3   120  THR120     -0.2211
     60  CG2       49.4540   32.1990   10.2360 C.3   120  THR120      0.0375
     61  N         48.3990   34.0070    2.8750 N.3   164  PRO164     -0.2116
     62  CA        48.6930   35.0130    3.9000 C.3   164  PRO164      0.1372
     63  C         49.9520   35.8210    3.5870 C.2   164  PRO164      0.2244
     64  O         50.0230   37.0200    3.8750 O.2   164  PRO164     -0.2868
     65  CB        48.8010   34.1890    5.1950 C.3   164  PRO164      0.0268
     66  CG        49.0930   32.7940    4.7190 C.3   164  PRO164      0.0207
     67  CD        48.2370   32.6750    3.4800 C.3   164  PRO164      0.0892
     68  N         49.7170   39.6880    3.5170 N.3   168  LEU168     -0.1245
     69  CA        50.5050   40.5000    4.4490 C.3   168  LEU168      0.1561
     70  C         51.4420   41.5330    3.8250 C.2   168  LEU168      0.2260
     71  O         51.7840   42.5230    4.4650 O.2   168  LEU168     -0.2867
     72  CB        51.3050   39.5870    5.3800 C.3   168  LEU168      0.0270
     73  CG        50.3990   38.7480    6.2770 C.3   168  LEU168      0.0019
     74  CD1       51.2100   37.7530    7.0960 C.3   168  LEU168      0.0001
     75  CD2       49.6070   39.6890    7.1620 C.3   168  LEU168      0.0001
     76  N         48.1940   45.2110   -0.3010 N.3   171  SER171     -0.1202
     77  CA        47.4700   46.4070    0.1440 C.3   171  SER171      0.2020
     78  C         46.6850   46.2700    1.4420 C.2   171  SER171      0.2619
     79  O         46.3280   47.2660    2.0620 O.2   171  SER171     -0.2717
     80  CB        46.5350   46.9050   -0.9680 C.3   171  SER171      0.2103
     81  OG        45.5340   45.9480   -1.2500 O.3   171  SER171     -0.2182
     82  N         46.3900   45.0450    1.8480 N.am  172  GLU172     -0.1965
     83  CA        45.6630   44.8590    3.0940 C.3   172  GLU172      0.1733
     84  C         46.6630   44.8560    4.2450 C.2   172  GLU172      0.2617
     85  O         46.3090   45.1230    5.3930 O.2   172  GLU172     -0.2715
     86  CB        44.8590   43.5470    3.0680 C.3   172  GLU172      0.0429
     87  CG        43.7470   43.5370    2.0280 C.3   172  GLU172      0.1163
     88  CD        44.0470   42.6190    0.8560 C.2   172  GLU172      0.3649
     89  OE1       45.2150   42.5690    0.4080 O.co2 172  GLU172     -0.2457
     90  OE2       43.1070   41.9560    0.3680 O.co2 172  GLU172     -0.2457
     91  N         47.9200   44.5680    3.9190 N.am  173  GLY173     -0.1940
     92  CA        48.9580   44.5350    4.9300 C.3   173  GLY173      0.2014
     93  C         49.9400   45.6920    4.8870 C.2   173  GLY173      0.2638
     94  O         49.5630   46.8540    4.9960 O.2   173  GLY173     -0.2714
     95  N         51.2150   45.3680    4.7120 N.am  174  ALA174     -0.1977
     96  CA        52.2750   46.3710    4.6780 C.3   174  ALA174      0.1597
     97  C         52.2110   47.3230    3.4840 C.2   174  ALA174      0.2287
     98  O         52.8940   48.3450    3.4670 O.2   174  ALA174     -0.2864
     99  CB        53.6300   45.6840    4.7180 C.3   174  ALA174      0.0319
@<TRIPOS>BOND
     1    81    80    1
     2    80    77    1
     3    76    77    1
     4    77    78    1
     5    90    88   ar
     6    89    88   ar
     7    88    87    1
     8    78    82   am
     9    78    79    2
    10    82    83    1
    11    87    86    1
    12    61    67    1
    13    61    62    1
    14    86    83    1
    15    83    84    1
    16    98    97    2
    17    67    66    1
    18    97    96    1
    19    68    69    1
    20    63    64    2
    21    63    62    1
    22    70    69    1
    23    70    71    2
    24    62    65    1
    25    91    84   am
    26    91    92    1
    27    84    85    2
    28    69    72    1
    29    96    95    1
    30    96    99    1
    31    95    93   am
    32    66    65    1
    33    93    92    1
    34    93    94    2
    35    72    73    1
    36    73    74    1
    37    73    75    1
    38    48    46   ar
    39    48    47   ar
    40    46    44   ar
    41    47    45   ar
    42    22    21    1
    43    23    21    1
    44    44    43   ar
    45    44    42   ar
    46    21    20    2
    47    45    42   ar
    48    43    41   ar
    49    42    40   ar
    50    20    19    1
    51    41    40   ar
    52    40    39    1
    53    19    18    1
    54    59    58    1
    55    60    58    1
    56    55    58    1
    57    55    54    1
    58    55    56    1
    59    39    36    1
    60    18    17    1
    61    57    56    2
    62    38    37    2
    63    12    11    1
    64    36    37    1
    65    36    35    1
    66     9    11   ar
    67     9     7   ar
    68    37    49   am
    69    11    10   ar
    70    17    14    1
    71     7     6   ar
    72    16    15    2
    73    14    15    1
    74    14    13    1
    75    15    24   am
    76    49    50    1
    77    10     8   ar
    78     6     8   ar
    79     6     5    1
    80    50    51    1
    81    50    53    1
    82    24    25    1
    83    52    51    2
    84    25    26    1
    85    25    28    1
    86     2     5    1
    87     2     1    1
    88     2     3    1
    89    27    26    2
    90    30    32   ar
    91    30    29   ar
    92    32    34   ar
    93     4     3    2
    94    28    29    1
    95    29    31   ar
    96    34    33   ar
    97    31    33   ar
