@<TRIPOS>MOLECULE
tmp/1jv7A06.pdb
 86 84 0 0 0
SMALL
GASTEIGER

@<TRIPOS>ATOM
      1  N         45.4060   48.8940   14.3470 N.3   109  TYR109     -0.1241
      2  CA        46.5020   47.9600   14.1310 C.3   109  TYR109      0.1605
      3  C         46.5300   46.7710   15.0800 C.2   109  TYR109      0.2264
      4  O         46.7240   45.6360   14.6440 O.2   109  TYR109     -0.2867
      5  CB        47.8300   48.7100   14.2550 C.3   109  TYR109      0.0534
      6  CG        48.9720   48.0990   13.4800 C.ar  109  TYR109     -0.0201
      7  CD1       49.2600   48.5260   12.1840 C.ar  109  TYR109     -0.0009
      8  CD2       49.7670   47.0960   14.0380 C.ar  109  TYR109     -0.0009
      9  CE1       50.3160   47.9720   11.4580 C.ar  109  TYR109      0.0417
     10  CE2       50.8270   46.5300   13.3220 C.ar  109  TYR109      0.0417
     11  CZ        51.0960   46.9730   12.0320 C.ar  109  TYR109      0.1957
     12  OH        52.1390   46.4140   11.3210 O.3   109  TYR109     -0.2866
     13  N         43.3310   44.3540   14.6060 N.3   112  ARG112     -0.1231
     14  CA        43.5200   43.6590   13.3450 C.3   112  ARG112      0.1694
     15  C         44.5970   42.5910   13.4510 C.2   112  ARG112      0.2592
     16  O         44.3780   41.4320   13.0790 O.2   112  ARG112     -0.2718
     17  CB        43.9100   44.6440   12.2550 C.3   112  ARG112      0.0321
     18  CG        44.3990   43.9700   10.9980 C.3   112  ARG112      0.0489
     19  CD        44.6720   44.9950    9.9170 C.3   112  ARG112      0.2205
     20  NE        43.4520   45.6770    9.5020 N.pl3 112  ARG112     -0.0865
     21  CZ        43.4180   46.6600    8.6090 C.cat 112  ARG112      0.5346
     22  NH1       44.5410   47.0730    8.0380 N.pl3 112  ARG112      0.1354
     23  NH2       42.2620   47.2270    8.2810 N.pl3 112  ARG112      0.1354
     24  N         45.7630   42.9930   13.9500 N.am  113  PHE113     -0.1976
     25  CA        46.8820   42.0800   14.1060 C.3   113  PHE113      0.1639
     26  C         46.3820   40.7590   14.6590 C.2   113  PHE113      0.2290
     27  O         46.6550   39.6970   14.0990 O.2   113  PHE113     -0.2864
     28  CB        47.9270   42.6630   15.0650 C.3   113  PHE113      0.0560
     29  CG        49.1080   41.7550   15.2990 C.ar  113  PHE113     -0.0200
     30  CD1       50.2430   41.8370   14.4960 C.ar  113  PHE113     -0.0042
     31  CD2       49.0650   40.7840   16.2950 C.ar  113  PHE113     -0.0042
     32  CE1       51.3160   40.9630   14.6810 C.ar  113  PHE113     -0.0003
     33  CE2       50.1320   39.9050   16.4850 C.ar  113  PHE113     -0.0003
     34  CZ        51.2580   39.9950   15.6770 C.ar  113  PHE113     -0.0000
     35  N         44.1330   38.6010   12.2220 N.3   116  TRP116     -0.1227
     36  CA        44.9080   37.9200   11.2020 C.3   116  TRP116      0.1737
     37  C         45.8850   36.9010   11.7810 C.2   116  TRP116      0.2595
     38  O         46.3710   36.0270   11.0700 O.2   116  TRP116     -0.2718
     39  CB        45.6400   38.9410   10.3470 C.3   116  TRP116      0.0564
     40  CG        44.6940   39.7960    9.5530 C.ar  116  TRP116      0.0003
     41  CD1       43.3220   39.6910    9.5020 C.ar  116  TRP116      0.0946
     42  CD2       45.0440   40.8530    8.6520 C.ar  116  TRP116      0.0152
     43  NE1       42.8060   40.6110    8.6220 N.ar  116  TRP116     -0.2442
     44  CE2       43.8390   41.3400    8.0860 C.ar  116  TRP116      0.0810
     45  CE3       46.2600   41.4380    8.2630 C.ar  116  TRP116      0.0012
     46  CZ2       43.8160   42.3810    7.1530 C.ar  116  TRP116      0.0191
     47  CZ3       46.2400   42.4750    7.3340 C.ar  116  TRP116      0.0001
     48  CH2       45.0260   42.9360    6.7900 C.ar  116  TRP116      0.0015
     49  N         46.1660   37.0210   13.0740 N.am  117  ALA117     -0.1980
     50  CA        47.0490   36.0920   13.7510 C.3   117  ALA117      0.1597
     51  C         46.2030   34.8610   14.0680 C.2   117  ALA117      0.2287
     52  O         46.6750   33.7250   13.9670 O.2   117  ALA117     -0.2864
     53  CB        47.5840   36.7130   15.0410 C.3   117  ALA117      0.0319
     54  N         45.6470   33.0010   10.8410 N.3   120  THR120     -0.1218
     55  CA        46.8200   32.2090   10.4820 C.3   120  THR120      0.1862
     56  C         46.8970   30.9590   11.3530 C.2   120  THR120      0.2287
     57  O         47.2460   29.8780   10.8780 O.2   120  THR120     -0.2866
     58  CB        48.1290   33.0430   10.6420 C.3   120  THR120      0.1770
     59  OG1       48.0620   34.1950    9.7890 O.3   120  THR120     -0.2211
     60  CG2       49.3600   32.2020   10.2410 C.3   120  THR120      0.0375
     61  N         49.6470   40.0410    3.6160 N.3   168  LEU168     -0.1245
     62  CA        50.3590   40.9010    4.5530 C.3   168  LEU168      0.1561
     63  C         51.2680   41.9440    3.9000 C.2   168  LEU168      0.2260
     64  O         51.4660   43.0240    4.4520 O.2   168  LEU168     -0.2867
     65  CB        51.1740   40.0560    5.5250 C.3   168  LEU168      0.0270
     66  CG        50.3690   39.0500    6.3400 C.3   168  LEU168      0.0019
     67  CD1       51.3200   38.2040    7.1730 C.3   168  LEU168      0.0001
     68  CD2       49.3720   39.7720    7.2300 C.3   168  LEU168      0.0001
     69  N         46.3410   45.1950    1.8140 N.3   172  GLU172     -0.1231
     70  CA        45.6000   44.9390    3.0660 C.3   172  GLU172      0.1699
     71  C         46.5640   44.9280    4.2520 C.2   172  GLU172      0.2593
     72  O         46.1520   45.1580    5.3730 O.2   172  GLU172     -0.2718
     73  CB        44.8840   43.5650    3.0410 C.3   172  GLU172      0.0402
     74  CG        43.6200   43.5740    2.2170 C.3   172  GLU172      0.1161
     75  CD        43.6780   42.5730    1.0710 C.2   172  GLU172      0.3649
     76  OE1       44.7550   42.4140    0.4470 O.co2 172  GLU172     -0.2457
     77  OE2       42.6460   41.9370    0.7850 O.co2 172  GLU172     -0.2457
     78  N         47.8090   44.5760    3.9910 N.am  173  GLY173     -0.1942
     79  CA        48.7980   44.5930    5.0340 C.3   173  GLY173      0.2014
     80  C         49.6920   45.8770    5.0840 C.2   173  GLY173      0.2638
     81  O         49.3100   47.0420    5.4220 O.2   173  GLY173     -0.2714
     82  N         50.9590   45.6690    4.7380 N.am  174  ALA174     -0.1977
     83  CA        51.9640   46.7450    4.7930 C.3   174  ALA174      0.1597
     84  C         51.9140   47.7030    3.6420 C.2   174  ALA174      0.2287
     85  O         52.4610   48.7950    3.7300 O.2   174  ALA174     -0.2864
     86  CB        53.3600   46.1270    4.9000 C.3   174  ALA174      0.0319
@<TRIPOS>BOND
     1    76    75   ar
     2    77    75   ar
     3    75    74    1
     4    69    70    1
     5    74    73    1
     6    73    70    1
     7    70    71    1
     8    61    62    1
     9    84    85    2
    10    84    83    1
    11    63    64    2
    12    63    62    1
    13    78    71   am
    14    78    79    1
    15    71    72    2
    16    62    65    1
    17    82    83    1
    18    82    80   am
    19    83    86    1
    20    79    80    1
    21    80    81    2
    22    65    66    1
    23    66    67    1
    24    66    68    1
    25    48    46   ar
    26    48    47   ar
    27    46    44   ar
    28    47    45   ar
    29    22    21    1
    30    44    43   ar
    31    44    42   ar
    32    45    42   ar
    33    23    21    1
    34    21    20    2
    35    43    41   ar
    36    42    40   ar
    37    20    19    1
    38    41    40   ar
    39    40    39    1
    40    59    58    1
    41    19    18    1
    42    60    58    1
    43    39    36    1
    44    55    58    1
    45    55    54    1
    46    55    56    1
    47    57    56    2
    48    18    17    1
    49    38    37    2
    50    36    37    1
    51    36    35    1
    52    12    11    1
    53     9    11   ar
    54     9     7   ar
    55    37    49   am
    56    11    10   ar
    57     7     6   ar
    58    17    14    1
    59    49    50    1
    60    16    15    2
    61    10     8   ar
    62    14    15    1
    63    14    13    1
    64    15    24   am
    65     6     8   ar
    66     6     5    1
    67    50    51    1
    68    50    53    1
    69    24    25    1
    70    52    51    2
    71    27    26    2
    72    25    26    1
    73    25    28    1
    74     2     5    1
    75     2     1    1
    76     2     3    1
    77    30    32   ar
    78    30    29   ar
    79     4     3    2
    80    32    34   ar
    81    28    29    1
    82    29    31   ar
    83    34    33   ar
    84    31    33   ar
