@<TRIPOS>MOLECULE
tmp/1jv7A04.pdb
 99 95 0 0 0
SMALL
GASTEIGER

@<TRIPOS>ATOM
      1  N         32.4220   27.9120   -9.0250 N.3    44  ILE44      -0.1245
      2  CA        32.1630   29.0190   -8.1120 C.3    44  ILE44       0.1561
      3  C         33.1680   30.1720   -8.3230 C.2    44  ILE44       0.2260
      4  O         32.7840   31.3610   -8.3490 O.2    44  ILE44      -0.2867
      5  CB        32.2320   28.5560   -6.6700 C.3    44  ILE44       0.0252
      6  CG1       31.0050   27.6920   -6.3570 C.3    44  ILE44       0.0019
      7  CG2       32.3190   29.7560   -5.7300 C.3    44  ILE44       0.0019
      8  CD1       31.0290   27.0940   -4.9860 C.3    44  ILE44       0.0001
      9  N         34.8750   30.7900  -11.0580 N.3    46  PHE46      -0.1227
     10  CA        34.6250   31.4030  -12.3630 C.3    46  PHE46       0.1736
     11  C         33.5560   32.4860  -12.2890 C.2    46  PHE46       0.2596
     12  O         33.6740   33.5500  -12.9140 O.2    46  PHE46      -0.2718
     13  CB        34.1780   30.3500  -13.3740 C.3    46  PHE46       0.0547
     14  CG        33.5510   30.9270  -14.6140 C.ar   46  PHE46      -0.0202
     15  CD1       32.1700   31.0860  -14.7050 C.ar   46  PHE46      -0.0042
     16  CD2       34.3410   31.3160  -15.6920 C.ar   46  PHE46      -0.0042
     17  CE1       31.5840   31.6230  -15.8540 C.ar   46  PHE46      -0.0003
     18  CE2       33.7670   31.8550  -16.8470 C.ar   46  PHE46      -0.0003
     19  CZ        32.3840   32.0080  -16.9270 C.ar   46  PHE46      -0.0000
     20  N         32.5020   32.1940  -11.5320 N.am   47  THR47      -0.1939
     21  CA        31.3870   33.1140  -11.3770 C.3    47  THR47       0.2028
     22  C         31.8560   34.4150  -10.7350 C.2    47  THR47       0.2642
     23  O         31.4240   35.5010  -11.1240 O.2    47  THR47      -0.2714
     24  CB        30.2440   32.4690  -10.5170 C.3    47  THR47       0.1808
     25  OG1       29.7760   31.2780  -11.1670 O.3    47  THR47      -0.2208
     26  CG2       29.0760   33.4350  -10.3460 C.3    47  THR47       0.0379
     27  N         32.7550   34.3070   -9.7610 N.am   48  MET48      -0.1976
     28  CA        33.2590   35.4950   -9.0810 C.3    48  MET48       0.1605
     29  C         34.2000   36.3160   -9.9450 C.2    48  MET48       0.2287
     30  O         34.1130   37.5480   -9.9630 O.2    48  MET48      -0.2864
     31  CB        33.9560   35.1160   -7.7770 C.3    48  MET48       0.0413
     32  CG        32.9990   34.5910   -6.7220 C.3    48  MET48       0.0598
     33  SD        31.6600   35.7550   -6.3260 S.3    48  MET48      -0.1393
     34  CE        30.4460   35.3390   -7.5990 C.3    48  MET48       0.0692
     35  N         34.2950   36.3480  -13.2110 N.3    50  LEU50      -0.1231
     36  CA        33.4980   36.9390  -14.2760 C.3    50  LEU50       0.1693
     37  C         32.7800   38.1770  -13.7080 C.2    50  LEU50       0.2592
     38  O         32.6670   39.2010  -14.3790 O.2    50  LEU50      -0.2718
     39  CB        32.4750   35.9360  -14.8070 C.3    50  LEU50       0.0284
     40  CG        32.0390   36.1140  -16.2690 C.3    50  LEU50       0.0019
     41  CD1       30.9190   35.1480  -16.5840 C.3    50  LEU50       0.0001
     42  CD2       31.5800   37.5280  -16.5240 C.3    50  LEU50       0.0001
     43  N         32.3020   38.0850  -12.4690 N.am   51  SER51      -0.1952
     44  CA        31.6210   39.2150  -11.8410 C.3    51  SER51       0.1924
     45  C         32.5370   40.4230  -11.6740 C.2    51  SER51       0.2314
     46  O         32.0980   41.5640  -11.8150 O.2    51  SER51      -0.2863
     47  CB        31.0710   38.8260  -10.4680 C.3    51  SER51       0.2116
     48  OG        29.9310   38.0070  -10.6090 O.3    51  SER51      -0.2180
     49  N         32.9690   42.4350  -14.7860 N.3    54  LEU54      -0.1245
     50  CA        31.8170   43.3010  -15.0140 C.3    54  LEU54       0.1561
     51  C         31.7310   44.4200  -13.9840 C.2    54  LEU54       0.2260
     52  O         30.9970   45.3890  -14.1730 O.2    54  LEU54      -0.2867
     53  CB        30.5270   42.4810  -14.9780 C.3    54  LEU54       0.0270
     54  CG        30.1420   41.6960  -16.2320 C.3    54  LEU54       0.0019
     55  CD1       31.3510   41.0040  -16.8340 C.3    54  LEU54       0.0001
     56  CD2       29.0720   40.6900  -15.8640 C.3    54  LEU54       0.0001
     57  N         34.6750   45.2410   -4.1300 N.3    56  ILE56      -0.1245
     58  CA        35.6370   45.1860   -5.2230 C.3    56  ILE56       0.1561
     59  C         36.2610   43.7980   -5.3410 C.2    56  ILE56       0.2260
     60  O         35.8340   42.9950   -6.1670 O.2    56  ILE56      -0.2867
     61  CB        36.7480   46.2470   -5.0350 C.3    56  ILE56       0.0252
     62  CG1       37.1380   46.3420   -3.5580 C.3    56  ILE56       0.0019
     63  CG2       36.2730   47.5940   -5.5670 C.3    56  ILE56       0.0019
     64  CD1       38.1780   47.4120   -3.2710 C.3    56  ILE56       0.0001
     65  N         36.3450   41.8120   -2.7500 N.3    58  TRP58      -0.1227
     66  CA        35.7010   41.0290   -1.7140 C.3    58  TRP58       0.1737
     67  C         34.9240   39.8990   -2.3630 C.2    58  TRP58       0.2595
     68  O         34.4620   38.9820   -1.6870 O.2    58  TRP58      -0.2718
     69  CB        34.7800   41.9170   -0.8870 C.3    58  TRP58       0.0564
     70  CG        35.5530   42.7900    0.0320 C.ar   58  TRP58       0.0003
     71  CD1       35.5610   44.1560    0.0620 C.ar   58  TRP58       0.0946
     72  CD2       36.4530   42.3560    1.0620 C.ar   58  TRP58       0.0152
     73  NE1       36.4100   44.6000    1.0500 N.ar   58  TRP58      -0.2442
     74  CE2       36.9680   43.5220    1.6760 C.ar   58  TRP58       0.0810
     75  CE3       36.8710   41.1010    1.5200 C.ar   58  TRP58       0.0012
     76  CZ2       37.8880   43.4600    2.7380 C.ar   58  TRP58       0.0191
     77  CZ3       37.7860   41.0420    2.5750 C.ar   58  TRP58       0.0001
     78  CH2       38.2830   42.2180    3.1710 C.ar   58  TRP58       0.0015
     79  N         34.7910   39.9790   -3.6840 N.am   59  ALA59      -0.1980
     80  CA        34.0930   38.9620   -4.4560 C.3    59  ALA59       0.1597
     81  C         34.9540   37.7090   -4.4410 C.2    59  ALA59       0.2287
     82  O         34.4620   36.6020   -4.2060 O.2    59  ALA59      -0.2864
     83  CB        33.8840   39.4350   -5.8900 C.3    59  ALA59       0.0319
     84  N         34.8030   36.1070   -1.1950 N.3    62  ALA62      -0.1245
     85  CA        33.5910   35.3210   -1.0040 C.3    62  ALA62       0.1562
     86  C         33.7830   33.9540   -1.6510 C.2    62  ALA62       0.2260
     87  O         33.2720   32.9550   -1.1540 O.2    62  ALA62      -0.2867
     88  CB        32.3800   36.0380   -1.6200 C.3    62  ALA62       0.0290
     89  N         33.5610   29.7190    0.0040 N.3    66  PHE66      -0.1241
     90  CA        32.8520   28.5450   -0.4730 C.3    66  PHE66       0.1605
     91  C         33.7740   27.4220   -0.9330 C.2    66  PHE66       0.2264
     92  O         33.4850   26.2390   -0.7140 O.2    66  PHE66      -0.2867
     93  CB        31.9380   28.9100   -1.6520 C.3    66  PHE66       0.0534
     94  CG        30.7690   29.7870   -1.2800 C.ar   66  PHE66      -0.0203
     95  CD1       30.9490   31.1360   -1.0130 C.ar   66  PHE66      -0.0042
     96  CD2       29.4840   29.2540   -1.1880 C.ar   66  PHE66      -0.0042
     97  CE1       29.8730   31.9410   -0.6560 C.ar   66  PHE66      -0.0003
     98  CE2       28.3990   30.0540   -0.8310 C.ar   66  PHE66      -0.0003
     99  CZ        28.5930   31.3980   -0.5660 C.ar   66  PHE66      -0.0000
@<TRIPOS>BOND
     1    19    18   ar
     2    19    17   ar
     3    18    16   ar
     4    55    54    1
     5    41    40    1
     6    42    40    1
     7    40    39    1
     8    54    56    1
     9    54    53    1
    10    17    15   ar
    11    16    14   ar
    12    50    53    1
    13    50    49    1
    14    50    51    1
    15    39    36    1
    16    15    14   ar
    17    14    13    1
    18    38    37    2
    19    36    37    1
    20    36    35    1
    21    52    51    2
    22    37    43   am
    23    13    10    1
    24    12    11    2
    25    43    44    1
    26    10    11    1
    27    10     9    1
    28    11    20   am
    29    44    45    1
    30    44    47    1
    31    46    45    2
    32    20    21    1
    33    21    22    1
    34    21    24    1
    35    25    24    1
    36    23    22    2
    37    22    27   am
    38    48    47    1
    39    24    26    1
    40    30    29    2
    41    29    28    1
    42    27    28    1
    43    28    31    1
    44     1     2    1
    45     4     3    2
    46     3     2    1
    47     2     5    1
    48    31    32    1
    49    34    33    1
    50    32    33    1
    51     5     6    1
    52     5     7    1
    53     6     8    1
    54    60    59    2
    55    83    80    1
    56    63    61    1
    57    59    58    1
    58    58    61    1
    59    58    57    1
    60    61    62    1
    61    80    81    1
    62    80    79    1
    63    81    82    2
    64    79    67   am
    65    62    64    1
    66    65    66    1
    67    67    66    1
    68    67    68    2
    69    66    69    1
    70    93    94    1
    71    93    90    1
    72    86    87    2
    73    86    85    1
    74    88    85    1
    75    94    96   ar
    76    94    95   ar
    77    84    85    1
    78    96    98   ar
    79    95    97   ar
    80    91    92    2
    81    91    90    1
    82    69    70    1
    83    98    99   ar
    84    97    99   ar
    85    90    89    1
    86    70    71   ar
    87    70    72   ar
    88    71    73   ar
    89    73    74   ar
    90    72    75   ar
    91    72    74   ar
    92    75    77   ar
    93    74    76   ar
    94    77    78   ar
    95    76    78   ar
