@<TRIPOS>MOLECULE
tmp/1jv7A01.pdb
 80 73 0 0 0
SMALL
GASTEIGER

@<TRIPOS>ATOM
      1  N         51.6940   24.2850    0.1860 N.3   158  VAL158     -0.1245
      2  CA        52.5110   25.3560   -0.3820 C.3   158  VAL158      0.1561
      3  C         51.6730   26.5460   -0.8460 C.2   158  VAL158      0.2260
      4  O         51.9320   27.6970   -0.4750 O.2   158  VAL158     -0.2867
      5  CB        53.3530   24.8620   -1.6020 C.3   158  VAL158      0.0252
      6  CG1       53.9280   26.0540   -2.3590 C.3   158  VAL158      0.0019
      7  CG2       54.4910   23.9660   -1.1340 C.3   158  VAL158      0.0019
      8  N         50.9190   30.5180    0.9360 N.3   162  ALA162     -0.1245
      9  CA        51.2850   31.7400    0.2480 C.3   162  ALA162      0.1562
     10  C         50.2700   32.8910    0.3870 C.2   162  ALA162      0.2260
     11  O         50.6560   34.0750    0.2370 O.2   162  ALA162     -0.2867
     12  CB        51.5060   31.4460   -1.2180 C.3   162  ALA162      0.0290
     13  N         50.9040   35.4520    3.1830 N.3   165  VAL165     -0.1231
     14  CA        52.1280   36.1630    2.8120 C.3   165  VAL165      0.1692
     15  C         51.7940   37.2990    1.8410 C.2   165  VAL165      0.2591
     16  O         52.1460   38.4560    2.0780 O.2   165  VAL165     -0.2718
     17  CB        53.1560   35.1840    2.1750 C.3   165  VAL165      0.0266
     18  CG1       54.3490   35.9470    1.6390 C.3   165  VAL165      0.0020
     19  CG2       53.6080   34.1600    3.2220 C.3   165  VAL165      0.0020
     20  N         51.0990   36.9690    0.7570 N.am  166  VAL166     -0.1980
     21  CA        50.6940   37.9720   -0.2220 C.3   166  VAL166      0.1595
     22  C         49.8610   39.0650    0.4560 C.2   166  VAL166      0.2287
     23  O         50.1310   40.2570    0.3140 O.2   166  VAL166     -0.2864
     24  CB        49.8540   37.3390   -1.3320 C.3   166  VAL166      0.0276
     25  CG1       49.3240   38.4170   -2.2670 C.3   166  VAL166      0.0022
     26  CG2       50.7050   36.3290   -2.1040 C.3   166  VAL166      0.0022
     27  N         51.8330   41.6360    2.7390 N.3   169  ILE169     -0.1245
     28  CA        52.7010   42.6030    2.0830 C.3   169  ILE169      0.1561
     29  C         51.9080   43.3760    1.0440 C.2   169  ILE169      0.2260
     30  O         52.4300   44.2830    0.3940 O.2   169  ILE169     -0.2867
     31  CB        53.8910   41.9280    1.3730 C.3   169  ILE169      0.0252
     32  CG1       53.3940   41.0750    0.2170 C.3   169  ILE169      0.0019
     33  CG2       54.6730   41.0790    2.3570 C.3   169  ILE169      0.0019
     34  CD1       54.5250   40.4420   -0.5640 C.3   169  ILE169      0.0001
     35  N         53.0620   47.0390    0.4920 N.3   176  ILE176     -0.1231
     36  CA        54.2830   46.9750   -0.2960 C.3   176  ILE176      0.1692
     37  C         53.9450   46.6990   -1.7550 C.2   176  ILE176      0.2592
     38  O         54.3240   47.4630   -2.6460 O.2   176  ILE176     -0.2718
     39  CB        55.2180   45.8550    0.1930 C.3   176  ILE176      0.0266
     40  CG1       55.2290   45.7840    1.7170 C.3   176  ILE176      0.0019
     41  CG2       56.5990   46.0870   -0.3460 C.3   176  ILE176      0.0020
     42  CD1       55.5870   47.0550    2.3790 C.3   176  ILE176      0.0001
     43  N         53.2290   45.6030   -1.9910 N.am  177  VAL177     -0.1966
     44  CA        52.8370   45.1970   -3.3430 C.3   177  VAL177      0.1712
     45  C         51.6440   45.9910   -3.8910 C.2   177  VAL177      0.2458
     46  O         50.6240   46.1550   -3.2150 O.2   177  VAL177     -0.2730
     47  CB        52.4740   43.6940   -3.3780 C.3   177  VAL177      0.0289
     48  CG1       52.0710   43.2800   -4.7870 C.3   177  VAL177      0.0023
     49  CG2       53.6400   42.8730   -2.8950 C.3   177  VAL177      0.0023
     50  N         51.7610   46.4870   -5.1340 N.am  178  PRO178     -0.2727
     51  CA        50.7020   47.2630   -5.7910 C.3   178  PRO178      0.1402
     52  C         49.4190   46.4470   -5.9460 C.2   178  PRO178      0.2269
     53  O         49.4560   45.2190   -6.1190 O.2   178  PRO178     -0.2865
     54  CB        51.3130   47.6090   -7.1450 C.3   178  PRO178      0.0296
     55  CG        52.7810   47.6210   -6.8680 C.3   178  PRO178      0.0237
     56  CD        52.9620   46.4220   -5.9820 C.3   178  PRO178      0.0939
     57  N         49.4130   44.1090   -9.0580 N.3   181  ILE181     -0.1245
     58  CA        50.2830   42.9340   -8.9720 C.3   181  ILE181      0.1561
     59  C         49.7180   41.9360   -7.9680 C.2   181  ILE181      0.2260
     60  O         49.8440   40.7250   -8.1460 O.2   181  ILE181     -0.2867
     61  CB        51.7300   43.3250   -8.5560 C.3   181  ILE181      0.0252
     62  CG1       52.3700   44.1710   -9.6540 C.3   181  ILE181      0.0019
     63  CG2       52.5800   42.0770   -8.3280 C.3   181  ILE181      0.0019
     64  CD1       53.7760   44.6290   -9.3200 C.3   181  ILE181      0.0001
     65  N         49.0390   37.9700   -8.4960 N.3   185  LEU185     -0.1245
     66  CA        49.4300   36.9340   -7.5630 C.3   185  LEU185      0.1561
     67  C         48.2860   36.0130   -7.1250 C.2   185  LEU185      0.2260
     68  O         48.4040   34.7840   -7.2150 O.2   185  LEU185     -0.2867
     69  CB        50.0870   37.5820   -6.3310 C.3   185  LEU185      0.0270
     70  CG        51.3960   38.3430   -6.5960 C.3   185  LEU185      0.0019
     71  CD1       51.8970   38.9750   -5.3070 C.3   185  LEU185      0.0001
     72  CD2       52.4430   37.3820   -7.1770 C.3   185  LEU185      0.0001
     73  N         47.5900   31.9140   -7.8240 N.3   189  LEU189     -0.1245
     74  CA        47.3990   31.0420   -6.6810 C.3   189  LEU189      0.1561
     75  C         46.0320   30.3190   -6.7710 C.2   189  LEU189      0.2260
     76  O         45.9510   29.0890   -6.6170 O.2   189  LEU189     -0.2867
     77  CB        47.4720   31.8810   -5.4050 C.3   189  LEU189      0.0270
     78  CG        48.6140   31.7180   -4.3800 C.3   189  LEU189      0.0019
     79  CD1       49.8850   31.2460   -5.0540 C.3   189  LEU189      0.0001
     80  CD2       48.8360   33.0400   -3.6440 C.3   189  LEU189      0.0001
@<TRIPOS>BOND
     1    62    64    1
     2    62    61    1
     3    57    58    1
     4    58    61    1
     5    58    59    1
     6    61    63    1
     7    65    66    1
     8    60    59    2
     9    73    74    1
    10    66    67    1
    11    66    69    1
    12    68    67    2
    13    72    70    1
    14    54    55    1
    15    54    51    1
    16    55    56    1
    17    75    74    1
    18    75    76    2
    19    74    77    1
    20    70    69    1
    21    70    71    1
    22    53    52    2
    23    56    50    1
    24    52    51    1
    25    51    50    1
    26    77    78    1
    27    50    45   am
    28    79    78    1
    29    48    47    1
    30    78    80    1
    31    45    44    1
    32    45    46    2
    33    47    44    1
    34    47    49    1
    35    44    43    1
    36    38    37    2
    37     6     5    1
    38    25    24    1
    39    26    24    1
    40    43    37   am
    41    37    36    1
    42     5     7    1
    43     5     2    1
    44    24    21    1
    45    12     9    1
    46     3     4    2
    47     3     2    1
    48    34    32    1
    49     2     1    1
    50    41    39    1
    51    36    39    1
    52    36    35    1
    53    21    22    1
    54    21    20    1
    55    39    40    1
    56    32    31    1
    57    11    10    2
    58     9    10    1
    59     9     8    1
    60    23    22    2
    61    30    29    2
    62    20    15   am
    63    29    28    1
    64    31    28    1
    65    31    33    1
    66    18    17    1
    67    40    42    1
    68    15    16    2
    69    15    14    1
    70    28    27    1
    71    17    14    1
    72    17    19    1
    73    14    13    1
