@<TRIPOS>MOLECULE
tmp/1jv7A05.pdb
 89 82 0 0 0
SMALL
GASTEIGER

@<TRIPOS>ATOM
      1  N         49.7250    7.7710   -2.7250 N.3   147  SER147     -0.1217
      2  CA        50.5280    8.5490   -3.6590 C.3   147  SER147      0.1889
      3  C         49.8710    9.8430   -4.1570 C.2   147  SER147      0.2288
      4  O         50.5020   10.9050   -4.1700 O.2   147  SER147     -0.2866
      5  CB        50.9030    7.6760   -4.8540 C.3   147  SER147      0.2089
      6  OG        51.5820    8.4330   -5.8320 O.3   147  SER147     -0.2183
      7  N         49.5830   12.4440   -1.3470 N.3   150  LYS150     -0.1231
      8  CA        50.8460   13.1190   -1.0410 C.3   150  LYS150      0.1693
      9  C         51.0810   14.3070   -1.9760 C.2   150  LYS150      0.2591
     10  O         51.5010   15.3710   -1.5420 O.2   150  LYS150     -0.2718
     11  CB        52.0250   12.1370   -1.1280 C.3   150  LYS150      0.0285
     12  CG        52.0520   11.0640   -0.0390 C.3   150  LYS150      0.0035
     13  CD        53.3960   10.3280   -0.0390 C.3   150  LYS150      0.0206
     14  CE        53.5190    9.3130    1.1020 C.3   150  LYS150      0.1093
     15  NZ        52.7610    8.0450    0.8650 N.3   150  LYS150     -0.1314
     16  N         50.8020   14.1390   -3.2630 N.am  151  VAL151     -0.1980
     17  CA        50.9970   15.2570   -4.1750 C.3   151  VAL151      0.1595
     18  C         49.9930   16.3860   -3.8660 C.2   151  VAL151      0.2287
     19  O         50.3840   17.5530   -3.7140 O.2   151  VAL151     -0.2864
     20  CB        50.8450   14.8230   -5.6520 C.3   151  VAL151      0.0276
     21  CG1       51.1590   15.9870   -6.5740 C.3   151  VAL151      0.0022
     22  CG2       51.7760   13.6600   -5.9550 C.3   151  VAL151      0.0022
     23  N         48.5030   16.9450   -1.1950 N.3   153  ARG153     -0.1231
     24  CA        48.8390   17.4850    0.1210 C.3   153  ARG153      0.1694
     25  C         49.9640   18.5320    0.0420 C.2   153  ARG153      0.2592
     26  O         49.8950   19.5830    0.6840 O.2   153  ARG153     -0.2718
     27  CB        49.2390   16.3390    1.0590 C.3   153  ARG153      0.0321
     28  CG        50.1130   16.7420    2.2350 C.3   153  ARG153      0.0489
     29  CD        51.5600   16.3380    1.9580 C.3   153  ARG153      0.2205
     30  NE        51.9340   15.1330    2.6840 N.pl3 153  ARG153     -0.0865
     31  CZ        53.0340   14.4190    2.4570 C.cat 153  ARG153      0.5346
     32  NH1       53.8940   14.7740    1.5070 N.pl3 153  ARG153      0.1354
     33  NH2       53.2800   13.3510    3.2030 N.pl3 153  ARG153      0.1354
     34  N         50.9890   18.2380   -0.7560 N.am  154  ASN154     -0.1960
     35  CA        52.1170   19.1420   -0.9320 C.3   154  ASN154      0.1819
     36  C         51.7140   20.3840   -1.7170 C.2   154  ASN154      0.2621
     37  O         52.1800   21.4890   -1.4210 O.2   154  ASN154     -0.2715
     38  CB        53.2760   18.4240   -1.6380 C.3   154  ASN154      0.1195
     39  CG        53.8830   17.3230   -0.7850 C.2   154  ASN154      0.2630
     40  OD1       53.7150   17.3030    0.4350 O.2   154  ASN154     -0.2716
     41  ND2       54.6040   16.4120   -1.4200 N.am  154  ASN154     -0.0877
     42  N         50.8580   20.2070   -2.7230 N.am  155  VAL155     -0.1977
     43  CA        50.3890   21.3420   -3.5150 C.3   155  VAL155      0.1596
     44  C         49.5910   22.3000   -2.6170 C.2   155  VAL155      0.2287
     45  O         49.8190   23.5100   -2.6100 O.2   155  VAL155     -0.2864
     46  CB        49.4850   20.8760   -4.6870 C.3   155  VAL155      0.0276
     47  CG1       48.7790   22.0650   -5.3350 C.3   155  VAL155      0.0022
     48  CG2       50.3290   20.1910   -5.7220 C.3   155  VAL155      0.0022
     49  N         51.6940   24.2850    0.1860 N.3   158  VAL158     -0.1231
     50  CA        52.5110   25.3560   -0.3820 C.3   158  VAL158      0.1692
     51  C         51.6730   26.5460   -0.8460 C.2   158  VAL158      0.2591
     52  O         51.9320   27.6970   -0.4750 O.2   158  VAL158     -0.2718
     53  CB        53.3530   24.8620   -1.6020 C.3   158  VAL158      0.0266
     54  CG1       53.9280   26.0540   -2.3590 C.3   158  VAL158      0.0020
     55  CG2       54.4910   23.9660   -1.1340 C.3   158  VAL158      0.0020
     56  N         50.6760   26.2570   -1.6760 N.am  159  LEU159     -0.1980
     57  CA        49.7890   27.2790   -2.2090 C.3   159  LEU159      0.1596
     58  C         49.0090   28.0090   -1.1100 C.2   159  LEU159      0.2287
     59  O         49.0310   29.2370   -1.0410 O.2   159  LEU159     -0.2864
     60  CB        48.8160   26.6540   -3.2100 C.3   159  LEU159      0.0297
     61  CG        49.3930   26.0830   -4.4980 C.3   159  LEU159      0.0022
     62  CD1       48.2620   25.4730   -5.3390 C.3   159  LEU159      0.0001
     63  CD2       50.1080   27.1890   -5.2780 C.3   159  LEU159      0.0001
     64  N         50.9190   30.5180    0.9360 N.3   162  ALA162     -0.1245
     65  CA        51.2850   31.7400    0.2480 C.3   162  ALA162      0.1562
     66  C         50.2700   32.8910    0.3870 C.2   162  ALA162      0.2260
     67  O         50.6560   34.0750    0.2370 O.2   162  ALA162     -0.2867
     68  CB        51.5060   31.4460   -1.2180 C.3   162  ALA162      0.0290
     69  N         46.9360   33.6290   -9.8940 N.3   188  VAL188     -0.1231
     70  CA        47.8200   32.4970  -10.1560 C.3   188  VAL188      0.1692
     71  C         47.6470   31.4490   -9.0610 C.2   188  VAL188      0.2591
     72  O         47.5570   30.2590   -9.3330 O.2   188  VAL188     -0.2718
     73  CB        49.2820   32.9610  -10.2280 C.3   188  VAL188      0.0266
     74  CG1       50.2090   31.7570  -10.4060 C.3   188  VAL188      0.0020
     75  CG2       49.4320   33.9620  -11.3940 C.3   188  VAL188      0.0020
     76  N         47.5900   31.9140   -7.8240 N.am  189  LEU189     -0.1980
     77  CA        47.3990   31.0420   -6.6810 C.3   189  LEU189      0.1596
     78  C         46.0320   30.3190   -6.7710 C.2   189  LEU189      0.2287
     79  O         45.9510   29.0890   -6.6170 O.2   189  LEU189     -0.2864
     80  CB        47.4720   31.8810   -5.4050 C.3   189  LEU189      0.0297
     81  CG        48.6140   31.7180   -4.3800 C.3   189  LEU189      0.0022
     82  CD1       49.8850   31.2460   -5.0540 C.3   189  LEU189      0.0001
     83  CD2       48.8360   33.0400   -3.6440 C.3   189  LEU189      0.0001
     84  N         45.8090   27.8040   -9.4470 N.3   192  SER192     -0.1217
     85  CA        46.6420   26.6720   -9.0550 C.3   192  SER192      0.1889
     86  C         45.9790   25.8020   -8.0040 C.2   192  SER192      0.2288
     87  O         45.9840   24.5820   -8.1180 O.2   192  SER192     -0.2866
     88  CB        48.0030   27.1630   -8.5310 C.3   192  SER192      0.2089
     89  OG        48.6890   27.8790   -9.5400 O.3   192  SER192     -0.2183
@<TRIPOS>BOND
     1    75    73    1
     2    74    73    1
     3    73    70    1
     4    70    69    1
     5    70    71    1
     6    89    88    1
     7    84    85    1
     8    72    71    2
     9    71    76   am
    10    85    88    1
    11    85    86    1
    12    87    86    2
    13    76    77    1
    14    78    77    1
    15    78    79    2
    16    77    80    1
    17    21    20    1
    18    22    20    1
    19     6     5    1
    20    48    46    1
    21    20    17    1
    22    80    81    1
    23    62    61    1
    24    47    46    1
    25    63    61    1
    26    82    81    1
    27     5     2    1
    28    46    43    1
    29    61    60    1
    30    81    83    1
    31    17    18    1
    32    17    16    1
    33     4     3    2
    34     3     2    1
    35    18    19    2
    36     2     1    1
    37    43    42    1
    38    43    44    1
    39    16     9   am
    40    60    57    1
    41    42    36   am
    42    44    45    2
    43    54    53    1
    44    57    56    1
    45    57    58    1
    46     9    10    2
    47     9     8    1
    48    36    37    2
    49    36    35    1
    50    56    51   am
    51    38    35    1
    52    38    39    1
    53    53    55    1
    54    53    50    1
    55    41    39   am
    56     7     8    1
    57    68    65    1
    58    23    24    1
    59    11     8    1
    60    11    12    1
    61    58    59    2
    62    35    34    1
    63    51    52    2
    64    51    50    1
    65    39    40    2
    66    34    25   am
    67    50    49    1
    68    12    13    1
    69    13    14    1
    70    25    24    1
    71    25    26    2
    72    24    27    1
    73    67    66    2
    74    65    66    1
    75    65    64    1
    76    15    14    1
    77    27    28    1
    78    32    31    1
    79    29    28    1
    80    29    30    1
    81    31    30    2
    82    31    33    1
