@<TRIPOS>MOLECULE
tmp/1jv7A02.pdb
 75 70 0 0 0
SMALL
GASTEIGER

@<TRIPOS>ATOM
      1  N         37.4040   25.2630   11.4630 N.3    92  ALA92      -0.1245
      2  CA        38.6330   26.0560   11.4960 C.3    92  ALA92       0.1562
      3  C         38.7560   26.8480   10.2000 C.2    92  ALA92       0.2260
      4  O         39.2040   27.9910   10.2040 O.2    92  ALA92      -0.2867
      5  CB        39.8740   25.1420   11.6810 C.3    92  ALA92       0.0290
      6  N         36.6580   29.8420   10.4960 N.3    95  ILE95      -0.1245
      7  CA        37.2490   30.8690   11.3300 C.3    95  ILE95       0.1561
      8  C         38.3460   31.5840   10.5610 C.2    95  ILE95       0.2260
      9  O         38.4860   32.8010   10.6770 O.2    95  ILE95      -0.2867
     10  CB        37.8440   30.2820   12.6130 C.3    95  ILE95       0.0252
     11  CG1       36.7170   29.7220   13.4790 C.3    95  ILE95       0.0019
     12  CG2       38.6160   31.3610   13.3800 C.3    95  ILE95       0.0019
     13  CD1       37.1950   28.9660   14.6730 C.3    95  ILE95       0.0001
     14  N         36.6030   33.8070    8.1080 N.3    98  GLY98      -0.1210
     15  CA        35.7900   34.7470    8.8570 C.3    98  GLY98       0.1956
     16  C         36.5950   35.7990    9.5970 C.2    98  GLY98       0.2612
     17  O         36.2880   36.9930    9.5170 O.2    98  GLY98      -0.2717
     18  N         37.6250   35.3640   10.3230 N.am   99  THR99      -0.1952
     19  CA        38.4610   36.2940   11.0730 C.3    99  THR99       0.1897
     20  C         39.3390   37.0980   10.1250 C.2    99  THR99       0.2313
     21  O         39.7810   38.1850   10.4650 O.2    99  THR99      -0.2863
     22  CB        39.3560   35.5710   12.1240 C.3    99  THR99       0.1794
     23  OG1       40.2100   34.6210   11.4750 O.3    99  THR99      -0.2208
     24  CG2       38.4910   34.8540   13.1560 C.3    99  THR99       0.0378
     25  N         36.9980   39.9270    9.4140 N.3   102  VAL102     -0.1245
     26  CA        36.8020   40.8000   10.5640 C.3   102  VAL102      0.1561
     27  C         37.9860   41.7430   10.7760 C.2   102  VAL102      0.2260
     28  O         37.8100   42.9340   11.0570 O.2   102  VAL102     -0.2867
     29  CB        36.5910   39.9800   11.8530 C.3   102  VAL102      0.0252
     30  CG1       36.4370   40.9150   13.0320 C.3   102  VAL102      0.0019
     31  CG2       35.3650   39.0880   11.7190 C.3   102  VAL102      0.0019
     32  N         43.3390   39.4970   14.7570 N.3   115  TRP115     -0.1241
     33  CA        42.3960   38.7950   13.8960 C.3   115  TRP115      0.1605
     34  C         43.1360   37.9850   12.8450 C.2   115  TRP115      0.2264
     35  O         42.8180   36.8190   12.6120 O.2   115  TRP115     -0.2867
     36  CB        41.4440   39.7810   13.2140 C.3   115  TRP115      0.0550
     37  CG        40.3980   40.3510   14.1450 C.ar  115  TRP115      0.0003
     38  CD1       40.1900   41.6700   14.4350 C.ar  115  TRP115      0.0946
     39  CD2       39.4160   39.6150   14.8930 C.ar  115  TRP115      0.0152
     40  NE1       39.1410   41.8020   15.3150 N.ar  115  TRP115     -0.2442
     41  CE2       38.6490   40.5630   15.6090 C.ar  115  TRP115      0.0810
     42  CE3       39.1150   38.2560   15.0250 C.ar  115  TRP115      0.0012
     43  CZ2       37.5900   40.1830   16.4490 C.ar  115  TRP115      0.0191
     44  CZ3       38.0570   37.8790   15.8650 C.ar  115  TRP115      0.0001
     45  CH2       37.3110   38.8410   16.5630 C.ar  115  TRP115      0.0015
     46  N         44.9490   35.1070   14.4570 N.3   118  ILE118     -0.1245
     47  CA        43.9900   34.0420   14.7730 C.3   118  ILE118      0.1561
     48  C         43.6700   33.3000   13.4820 C.2   118  ILE118      0.2260
     49  O         43.5340   32.0800   13.4710 O.2   118  ILE118     -0.2867
     50  CB        42.6650   34.6080   15.3490 C.3   118  ILE118      0.0252
     51  CG1       42.9120   35.1970   16.7370 C.3   118  ILE118      0.0019
     52  CG2       41.6100   33.5030   15.4380 C.3   118  ILE118      0.0019
     53  CD1       41.7150   35.9170   17.3120 C.3   118  ILE118      0.0001
     54  N         46.5590   31.1110   12.6290 N.3   121  ALA121     -0.1231
     55  CA        46.5710   29.9870   13.5480 C.3   121  ALA121      0.1694
     56  C         45.5920   28.9010   13.0590 C.2   121  ALA121      0.2591
     57  O         45.9130   27.7020   13.0810 O.2   121  ALA121     -0.2718
     58  CB        46.1830   30.4550   14.9360 C.3   121  ALA121      0.0304
     59  N         44.4010   29.3150   12.6220 N.am  122  ALA122     -0.1980
     60  CA        43.4150   28.3510   12.1290 C.3   122  ALA122      0.1597
     61  C         43.9820   27.7030   10.8680 C.2   122  ALA122      0.2287
     62  O         43.8530   26.4970   10.6900 O.2   122  ALA122     -0.2864
     63  CB        42.0540   29.0380   11.8250 C.3   122  ALA122      0.0319
     64  N         46.4120   24.9630   11.8000 N.3   125  TYR125     -0.1241
     65  CA        45.7870   23.7690   12.3640 C.3   125  TYR125      0.1605
     66  C         45.3320   22.8910   11.1990 C.2   125  TYR125      0.2264
     67  O         45.4800   21.6630   11.2240 O.2   125  TYR125     -0.2867
     68  CB        44.5900   24.1580   13.2370 C.3   125  TYR125      0.0534
     69  CG        43.6350   23.0200   13.5260 C.ar  125  TYR125     -0.0201
     70  CD1       42.4720   22.8560   12.7730 C.ar  125  TYR125     -0.0009
     71  CD2       43.9070   22.0950   14.5330 C.ar  125  TYR125     -0.0009
     72  CE1       41.5990   21.7970   13.0150 C.ar  125  TYR125      0.0417
     73  CE2       43.0450   21.0300   14.7850 C.ar  125  TYR125      0.0417
     74  CZ        41.8920   20.8890   14.0190 C.ar  125  TYR125      0.1957
     75  OH        41.0380   19.8380   14.2510 O.3   125  TYR125     -0.2866
@<TRIPOS>BOND
     1    14    15    1
     2    15    16    1
     3    25    26    1
     4    17    16    2
     5    16    18   am
     6    20    21    2
     7    20    19    1
     8     3     4    2
     9     3     2    1
    10    18    19    1
    11     6     7    1
    12     8     9    2
    13     8     7    1
    14    26    27    1
    15    26    29    1
    16    62    61    2
    17    27    28    2
    18    61    60    1
    19    19    22    1
    20    66    67    2
    21    66    65    1
    22     7    10    1
    23     1     2    1
    24    23    22    1
    25     2     5    1
    26    31    29    1
    27    64    65    1
    28    63    60    1
    29    29    30    1
    30    22    24    1
    31    60    59    1
    32    65    68    1
    33    35    34    2
    34    10    12    1
    35    10    11    1
    36    59    56   am
    37    54    55    1
    38    70    72   ar
    39    70    69   ar
    40    34    33    1
    41    72    74   ar
    42    56    57    2
    43    56    55    1
    44    36    33    1
    45    36    37    1
    46    68    69    1
    47    49    48    2
    48    11    13    1
    49    48    47    1
    50    69    71   ar
    51    55    58    1
    52    33    32    1
    53    74    75    1
    54    74    73   ar
    55    37    38   ar
    56    37    39   ar
    57    38    40   ar
    58    46    47    1
    59    71    73   ar
    60    47    50    1
    61    39    42   ar
    62    39    41   ar
    63    42    44   ar
    64    40    41   ar
    65    50    52    1
    66    50    51    1
    67    41    43   ar
    68    44    45   ar
    69    43    45   ar
    70    51    53    1
