@<TRIPOS>MOLECULE
tmp/1jvjA00.pdb
 138 129 0 0 0
SMALL
GASTEIGER

@<TRIPOS>ATOM
      1  N         12.5940    1.8310   33.6450 N.3    44  MET44      -0.1230
      2  CA        12.4420    3.0930   34.3770 C.3    44  MET44       0.1702
      3  C         11.0190    3.0750   34.9710 C.2    44  MET44       0.2593
      4  O         10.4970    1.9900   35.2980 O.2    44  MET44      -0.2718
      5  CB        12.6380    4.2920   33.4380 C.3    44  MET44       0.0401
      6  CG        13.9320    4.2380   32.6360 C.3    44  MET44       0.0596
      7  SD        13.7970    5.2230   31.1200 S.3    44  MET44      -0.1393
      8  CE        12.4470    4.3620   30.2490 C.3    44  MET44       0.0692
      9  N         10.3680    4.2390   35.0700 N.am   45  SER45      -0.1952
     10  CA         9.0290    4.3180   35.6720 C.3    45  SER45       0.1924
     11  C          7.9050    3.5430   35.0010 C.2    45  SER45       0.2314
     12  O          6.8250    3.4360   35.5710 O.2    45  SER45      -0.2863
     13  CB         8.5500    5.7720   35.8080 C.3    45  SER45       0.2116
     14  OG         9.3740    6.4900   36.7150 O.3    45  SER45      -0.2180
     15  N          5.9460    0.9770   36.9660 N.3    48  LYS48      -0.1245
     16  CA         4.8940    1.2970   37.9270 C.3    48  LYS48       0.1561
     17  C          3.5080    0.7990   37.5160 C.2    48  LYS48       0.2260
     18  O          2.6610    0.5400   38.3800 O.2    48  LYS48      -0.2867
     19  CB         4.8900    2.8100   38.1990 C.3    48  LYS48       0.0271
     20  CG         6.1680    3.2430   38.8960 C.3    48  LYS48       0.0035
     21  CD         6.2950    4.7580   38.9670 C.3    48  LYS48       0.0206
     22  CE         7.7310    5.1880   39.3160 C.3    48  LYS48       0.1093
     23  NZ         7.8320    6.6770   39.2620 N.3    48  LYS48      -0.1314
     24  N         14.2550   10.5450   45.8100 N.3    79  GLU79      -0.1231
     25  CA        14.2020   11.5610   44.7880 C.3    79  GLU79       0.1699
     26  C         12.9170   11.4540   43.9770 C.2    79  GLU79       0.2592
     27  O         12.5310   10.3690   43.5520 O.2    79  GLU79      -0.2718
     28  CB        15.3890   11.4100   43.8500 C.3    79  GLU79       0.0402
     29  CG        15.6600   12.6430   43.0340 C.3    79  GLU79       0.1161
     30  CD        16.1270   13.7920   43.9040 C.2    79  GLU79       0.3649
     31  OE1       15.3930   14.1710   44.8410 O.co2  79  GLU79      -0.2457
     32  OE2       17.2320   14.3100   43.6470 O.co2  79  GLU79      -0.2457
     33  N         12.3340   12.6030   43.7650 N.am   80  TYR80      -0.1976
     34  CA        11.0850   12.8300   43.0110 C.3    80  TYR80       0.1639
     35  C          9.8840   12.1550   43.6630 C.2    80  TYR80       0.2290
     36  O          9.4500   11.0710   43.2410 O.2    80  TYR80      -0.2864
     37  CB        11.1640   12.2930   41.5920 C.3    80  TYR80       0.0560
     38  CG         9.9580   12.7470   40.7730 C.ar   80  TYR80      -0.0198
     39  CD1        8.9670   11.8270   40.4100 C.ar   80  TYR80      -0.0009
     40  CD2        9.8450   14.0890   40.3940 C.ar   80  TYR80      -0.0009
     41  CE1        7.8580   12.2540   39.6680 C.ar   80  TYR80       0.0417
     42  CE2        8.7360   14.5150   39.6540 C.ar   80  TYR80       0.0417
     43  CZ         7.7420   13.5990   39.2910 C.ar   80  TYR80       0.1957
     44  OH         6.6630   14.0150   38.5750 O.3    80  TYR80      -0.2866
     45  N          4.0080    9.8440   38.5680 N.3   105  SER105     -0.1217
     46  CA         5.2350    9.0530   38.5570 C.3   105  SER105      0.1889
     47  C          6.0500    9.2530   39.8380 C.2   105  SER105      0.2288
     48  O          7.2930    9.3150   39.8230 O.2   105  SER105     -0.2866
     49  CB         6.0770    9.3770   37.3200 C.3   105  SER105      0.2089
     50  OG         6.8390    8.2430   36.9320 O.3   105  SER105     -0.2183
     51  N          8.1430    8.5270   42.8740 N.3   107  ALA107     -0.1245
     52  CA         9.0560    7.4070   43.1510 C.3   107  ALA107      0.1562
     53  C          8.8560    6.7720   44.5200 C.2   107  ALA107      0.2260
     54  O          8.8860    5.5540   44.6510 O.2   107  ALA107     -0.2867
     55  CB        10.5250    7.8490   42.9890 C.3   107  ALA107      0.0290
     56  N         13.5340    2.1550   43.8210 N.3   141  GLU141     -0.1231
     57  CA        13.8340    3.5380   43.4360 C.3   141  GLU141      0.1684
     58  C         14.8870    3.9720   44.4580 C.2   141  GLU141      0.2434
     59  O         14.7600    3.6670   45.6490 O.2   141  GLU141     -0.2733
     60  CB        12.6050    4.4400   43.5940 C.3   141  GLU141      0.0402
     61  CG        11.5210    4.1660   42.5820 C.3   141  GLU141      0.1161
     62  CD        11.7390    4.9000   41.2800 C.2   141  GLU141      0.3649
     63  OE1       12.8120    5.5110   41.1040 O.co2 141  GLU141     -0.2457
     64  OE2       10.8300    4.8690   40.4280 O.co2 141  GLU141     -0.2457
     65  N         15.9220    4.7070   44.0220 N.am  142  PRO142     -0.2729
     66  CA        16.1860    5.1730   42.6610 C.3   142  PRO142      0.1401
     67  C         17.1000    4.2980   41.8110 C.2   142  PRO142      0.2269
     68  O         17.1920    4.5190   40.6060 O.2   142  PRO142     -0.2865
     69  CB        16.8370    6.5340   42.8950 C.3   142  PRO142      0.0296
     70  CG        17.7070    6.2320   44.0830 C.3   142  PRO142      0.0237
     71  CD        16.8120    5.3830   44.9840 C.3   142  PRO142      0.0939
     72  N         16.8150    2.8480   38.0450 N.3   145  ASN145     -0.1240
     73  CA        16.9310    3.7220   36.8740 C.3   145  ASN145      0.1653
     74  C         18.3630    3.9130   36.3760 C.2   145  ASN145      0.2266
     75  O         18.5870    4.6970   35.4610 O.2   145  ASN145     -0.2867
     76  CB        16.3490    5.1100   37.1740 C.3   145  ASN145      0.1155
     77  CG        14.9730    5.0460   37.7750 C.2   145  ASN145      0.2627
     78  OD1       14.7980    5.2680   38.9900 O.2   145  ASN145     -0.2716
     79  ND2       13.9840    4.7310   36.9500 N.am  145  ASN145     -0.0877
     80  N         -0.0190   13.9900   34.4840 N.3   190  LYS190     -0.1231
     81  CA         0.5200   15.2980   34.8260 C.3   190  LYS190      0.1693
     82  C          1.9790   15.4010   34.3720 C.2   190  LYS190      0.2591
     83  O          2.6390   16.4280   34.6000 O.2   190  LYS190     -0.2718
     84  CB         0.4670   15.5130   36.3390 C.3   190  LYS190      0.0285
     85  CG        -0.9320   15.6060   36.9250 C.3   190  LYS190      0.0035
     86  CD        -1.5300   16.9690   36.6550 C.3   190  LYS190      0.0206
     87  CE        -2.7740   17.1750   37.5010 C.3   190  LYS190      0.1093
     88  NZ        -3.4790   18.4250   37.0920 N.3   190  LYS190     -0.1314
     89  N          2.4940   14.3570   33.7220 N.am  191  VAL191     -0.1980
     90  CA         3.8970   14.4170   33.3120 C.3   191  VAL191      0.1595
     91  C          4.2470   13.9540   31.9040 C.2   191  VAL191      0.2287
     92  O          5.3240   14.2830   31.4100 O.2   191  VAL191     -0.2864
     93  CB         4.8120   13.6310   34.3000 C.3   191  VAL191      0.0276
     94  CG1        4.6760   14.1930   35.7190 C.3   191  VAL191      0.0022
     95  CG2        4.4540   12.1460   34.2750 C.3   191  VAL191      0.0022
     96  N          2.0450    5.6160   30.4680 N.3   209  LYS209     -0.1231
     97  CA         3.0030    5.7310   31.5720 C.3   209  LYS209      0.1693
     98  C          4.3720    6.0030   30.9420 C.2   209  LYS209      0.2593
     99  O          4.8490    5.2240   30.1150 O.2   209  LYS209     -0.2718
    100  CB         3.0800    4.4520   32.4130 C.3   209  LYS209      0.0285
    101  CG         4.0290    4.5900   33.6400 C.3   209  LYS209      0.0035
    102  CD         3.4390    5.5820   34.6700 C.3   209  LYS209      0.0206
    103  CE         4.4710    6.1010   35.6590 C.3   209  LYS209      0.1093
    104  NZ         5.2990    7.1560   35.0180 N.3   209  LYS209     -0.1314
    105  N          4.9940    7.1160   31.3280 N.am  210  SER210     -0.1938
    106  CA         6.3090    7.4750   30.7940 C.3   210  SER210      0.2055
    107  C          7.4240    7.0970   31.7660 C.2   210  SER210      0.2644
    108  O          7.1730    6.6180   32.8620 O.2   210  SER210     -0.2714
    109  CB         6.3740    8.9740   30.5390 C.3   210  SER210      0.2130
    110  OG         6.1050    9.6820   31.7360 O.3   210  SER210     -0.2179
    111  N          8.6650    7.2910   31.3430 N.am  211  GLY211     -0.1939
    112  CA         9.7690    7.0000   32.2340 C.3   211  GLY211      0.2014
    113  C         10.9990    7.7710   31.7980 C.2   211  GLY211      0.2638
    114  O         11.1600    8.0860   30.6150 O.2   211  GLY211     -0.2714
    115  N         11.8530    8.1000   32.7630 N.am  212  ALA212     -0.1977
    116  CA        13.0950    8.7770   32.4570 C.3   212  ALA212      0.1597
    117  C         14.0900    8.2820   33.5000 C.2   212  ALA212      0.2287
    118  O         13.7950    8.2770   34.6870 O.2   212  ALA212     -0.2864
    119  CB        12.9270   10.2710   32.5560 C.3   212  ALA212      0.0319
    120  N         14.8280    7.0070   28.3140 N.3   218  ARG218     -0.1245
    121  CA        13.5200    7.6490   28.2200 C.3   218  ARG218      0.1563
    122  C         12.5800    6.6400   27.5750 C.2   218  ARG218      0.2260
    123  O         13.0060    5.8450   26.7450 O.2   218  ARG218     -0.2867
    124  CB        13.6330    8.8830   27.3200 C.3   218  ARG218      0.0307
    125  CG        12.3720    9.7710   27.2160 C.3   218  ARG218      0.0489
    126  CD        12.0600   10.3840   28.5500 C.3   218  ARG218      0.2205
    127  NE        11.0870   11.4700   28.4840 N.pl3 218  ARG218     -0.0865
    128  CZ        10.1050   11.6180   29.3640 C.cat 218  ARG218      0.5346
    129  NH1        9.9600   10.7340   30.3500 N.pl3 218  ARG218      0.1354
    130  NH2        9.2980   12.6660   29.3000 N.pl3 218  ARG218      0.1354
    131  N         16.4010   16.4110   27.4550 N.3   245  MET245     -0.1245
    132  CA        15.0910   15.8040   27.6710 C.3   245  MET245      0.1570
    133  C         14.1200   16.3660   26.6220 C.2   245  MET245      0.2261
    134  O         13.2860   15.6400   26.0960 O.2   245  MET245     -0.2867
    135  CB        14.5890   16.1050   29.0900 C.3   245  MET245      0.0387
    136  CG        13.3130   15.3580   29.5060 C.3   245  MET245      0.0595
    137  SD        13.5210   13.5590   29.4790 S.3   245  MET245     -0.1393
    138  CE        14.4210   13.3130   30.9920 C.3   245  MET245      0.0692
@<TRIPOS>BOND
     1   134   133    2
     2   133   132    1
     3   123   122    2
     4   125   124    1
     5   125   126    1
     6   124   121    1
     7   131   132    1
     8   122   121    1
     9   132   135    1
    10   121   120    1
    11   127   126    1
    12   127   128    2
    13   135   136    1
    14   130   128    1
    15   128   129    1
    16   137   136    1
    17   137   138    1
    18    99    98    2
    19     8     7    1
    20    96    97    1
    21   109   106    1
    22   109   110    1
    23   114   113    2
    24   106   105    1
    25   106   107    1
    26    98   105   am
    27    98    97    1
    28     7     6    1
    29   111   107   am
    30   111   112    1
    31    92    91    2
    32    97   100    1
    33   107   108    2
    34   113   112    1
    35   113   115   am
    36    91    90    1
    37   100   101    1
    38   116   119    1
    39   116   115    1
    40   116   117    1
    41     6     5    1
    42    90    89    1
    43    90    93    1
    44     5     2    1
    45   117   118    2
    46   101   102    1
    47     1     2    1
    48    89    82   am
    49    95    93    1
    50    93    94    1
    51    82    83    2
    52    82    81    1
    53     2     3    1
    54    80    81    1
    55   102   103    1
    56    81    84    1
    57     3     9   am
    58     3     4    2
    59    11    12    2
    60    11    10    1
    61   104   103    1
    62     9    10    1
    63    75    74    2
    64    10    13    1
    65    13    14    1
    66    84    85    1
    67    74    73    1
    68    86    85    1
    69    86    87    1
    70    73    76    1
    71    73    72    1
    72    50    49    1
    73    79    77   am
    74    15    16    1
    75    88    87    1
    76    76    77    1
    77    49    46    1
    78    17    16    1
    79    17    18    2
    80    77    78    2
    81    16    19    1
    82    19    20    1
    83    46    45    1
    84    46    47    1
    85    44    43    1
    86    20    21    1
    87    21    22    1
    88    23    22    1
    89    43    42   ar
    90    43    41   ar
    91    42    40   ar
    92    41    39   ar
    93    48    47    2
    94    40    38   ar
    95    39    38   ar
    96    64    62   ar
    97    68    67    2
    98    38    37    1
    99    63    62   ar
   100    62    61    1
   101    37    34    1
   102    67    66    1
   103    61    60    1
   104    66    69    1
   105    66    65    1
   106    51    52    1
   107    69    70    1
   108    55    52    1
   109    34    35    1
   110    34    33    1
   111    29    28    1
   112    29    30    1
   113    52    53    1
   114    36    35    2
   115    57    60    1
   116    57    56    1
   117    57    58    1
   118    27    26    2
   119    32    30   ar
   120    33    26   am
   121    28    25    1
   122    30    31   ar
   123    26    25    1
   124    65    58   am
   125    65    71    1
   126    70    71    1
   127    58    59    2
   128    53    54    2
   129    25    24    1
