@<TRIPOS>MOLECULE
tmp/1jvpA00.pdb
 149 142 0 0 0
SMALL
GASTEIGER

@<TRIPOS>ATOM
      1  N         -0.3510   24.2060    4.5200 N.3    10  ILE10      -0.1245
      2  CA         0.7740   24.5490    5.3740 C.3    10  ILE10       0.1561
      3  C          0.4790   24.2310    6.8330 C.2    10  ILE10       0.2260
      4  O          1.1890   24.6670    7.7400 O.2    10  ILE10      -0.2867
      5  CB         1.1590   26.0410    5.2240 C.3    10  ILE10       0.0252
      6  CG1       -0.0490   26.9410    5.4810 C.3    10  ILE10       0.0019
      7  CG2        1.7000   26.2900    3.8230 C.3    10  ILE10       0.0019
      8  CD1        0.1720   28.3980    5.0880 C.3    10  ILE10       0.0001
      9  N         -5.1900   25.1510    7.2900 N.3    18  VAL18      -0.1245
     10  CA        -4.5180   26.3060    6.6910 C.3    18  VAL18       0.1561
     11  C         -3.7410   25.9460    5.4250 C.2    18  VAL18       0.2260
     12  O         -2.9620   24.9950    5.4070 O.2    18  VAL18      -0.2867
     13  CB        -3.5500   26.9860    7.6850 C.3    18  VAL18       0.0252
     14  CG1       -2.9120   28.2070    7.0320 C.3    18  VAL18       0.0019
     15  CG2       -4.3050   27.4000    8.9500 C.3    18  VAL18       0.0019
     16  N         -1.9950   32.9950    3.4280 N.3    31  ALA31      -0.1245
     17  CA        -2.2450   31.8130    4.2350 C.3    31  ALA31       0.1562
     18  C         -3.7680   31.7870    4.3340 C.2    31  ALA31       0.2260
     19  O         -4.3610   32.6590    4.9630 O.2    31  ALA31      -0.2867
     20  CB        -1.6160   31.9810    5.6250 C.3    31  ALA31       0.0290
     21  N         -7.1610   30.1490    5.6420 N.3    33  LYS33      -0.1245
     22  CA        -7.7100   29.2600    6.6520 C.3    33  LYS33       0.1561
     23  C         -9.2210   29.1130    6.5290 C.2    33  LYS33       0.2260
     24  O         -9.9600   30.0860    6.6490 O.2    33  LYS33      -0.2867
     25  CB        -7.3680   29.7760    8.0520 C.3    33  LYS33       0.0271
     26  CG        -7.7550   28.8230    9.1700 C.3    33  LYS33       0.0035
     27  CD        -7.5280   29.4440   10.5400 C.3    33  LYS33       0.0206
     28  CE        -7.5090   28.3740   11.6160 C.3    33  LYS33       0.1093
     29  NZ        -7.6040   28.9620   12.9780 N.3    33  LYS33      -0.1314
     30  N          0.5120   38.2670   13.1710 N.3    57  VAL57      -0.1245
     31  CA         0.2570   37.9470   11.7640 C.3    57  VAL57       0.1561
     32  C         -0.9630   38.7430   11.3140 C.2    57  VAL57       0.2260
     33  O         -2.0250   38.6980   11.9390 O.2    57  VAL57      -0.2867
     34  CB         0.0030   36.4380   11.5400 C.3    57  VAL57       0.0252
     35  CG1       -0.2660   36.1660   10.0710 C.3    57  VAL57       0.0019
     36  CG2        1.2230   35.6370   11.9680 C.3    57  VAL57       0.0019
     37  N         -4.8680   35.3830    5.8080 N.3    73  PHE73      -0.1227
     38  CA        -3.7710   35.9350    6.5970 C.3    73  PHE73       0.1736
     39  C         -2.5330   36.1660    5.7540 C.2    73  PHE73       0.2595
     40  O         -2.3830   35.5850    4.6730 O.2    73  PHE73      -0.2718
     41  CB        -3.3760   34.9550    7.7050 C.3    73  PHE73       0.0547
     42  CG        -4.3500   34.8810    8.8340 C.ar   73  PHE73      -0.0202
     43  CD1       -4.3230   35.8240    9.8500 C.ar   73  PHE73      -0.0042
     44  CD2       -5.2670   33.8470    8.9050 C.ar   73  PHE73      -0.0042
     45  CE1       -5.1890   35.7390   10.9240 C.ar   73  PHE73      -0.0003
     46  CE2       -6.1420   33.7510    9.9800 C.ar   73  PHE73      -0.0003
     47  CZ        -6.0990   34.7020   10.9920 C.ar   73  PHE73      -0.0000
     48  N         -1.6450   37.0170    6.2550 N.am   74  GLU74      -0.1965
     49  CA        -0.3920   37.2890    5.5710 C.3    74  GLU74       0.1733
     50  C          0.4110   35.9920    5.6660 C.2    74  GLU74       0.2616
     51  O          0.2860   35.2420    6.6400 O.2    74  GLU74      -0.2715
     52  CB         0.3490   38.4470    6.2530 C.3    74  GLU74       0.0429
     53  CG         1.4650   38.0260    7.1900 C.3    74  GLU74       0.1163
     54  CD         2.1160   39.2030    7.8910 C.2    74  GLU74       0.3649
     55  OE1        3.2020   39.6340    7.4500 O.co2  74  GLU74      -0.2457
     56  OE2        1.5450   39.6980    8.8830 O.co2  74  GLU74      -0.2457
     57  N          1.2240   35.7240    4.6500 N.am   75  PHE75      -0.1960
     58  CA         2.0220   34.5080    4.6040 C.3    75  PHE75       0.1771
     59  C          3.4990   34.7530    4.9300 C.2    75  PHE75       0.2619
     60  O          4.1920   35.4660    4.2070 O.2    75  PHE75      -0.2715
     61  CB         1.8900   33.8710    3.2110 C.3    75  PHE75       0.0574
     62  CG         2.7250   32.6390    3.0210 C.ar   75  PHE75      -0.0200
     63  CD1        3.9660   32.7140    2.3990 C.ar   75  PHE75      -0.0042
     64  CD2        2.2740   31.4030    3.4680 C.ar   75  PHE75      -0.0042
     65  CE1        4.7430   31.5770    2.2240 C.ar   75  PHE75      -0.0003
     66  CE2        3.0430   30.2540    3.2980 C.ar   75  PHE75      -0.0003
     67  CZ         4.2810   30.3400    2.6760 C.ar   75  PHE75      -0.0000
     68  N          3.9700   34.1720    6.0330 N.am   76  LEU76      -0.1963
     69  CA         5.3720   34.3000    6.4200 C.3    76  LEU76       0.1728
     70  C          6.0580   33.0900    5.8050 C.2    76  LEU76       0.2616
     71  O          5.3990   32.3020    5.1310 O.2    76  LEU76      -0.2715
     72  CB         5.5130   34.3090    7.9420 C.3    76  LEU76       0.0311
     73  CG         5.3960   35.7320    8.4920 C.3    76  LEU76       0.0022
     74  CD1        3.9490   36.0280    8.7960 C.3    76  LEU76       0.0001
     75  CD2        6.2520   35.9000    9.7300 C.3    76  LEU76       0.0001
     76  N          7.3560   32.9060    6.0140 N.am   77  HIS77      -0.1959
     77  CA         7.9790   31.7600    5.3700 C.3    77  HIS77       0.1787
     78  C          8.3650   30.5660    6.2230 C.2    77  HIS77       0.2620
     79  O          8.7800   29.5390    5.6900 O.2    77  HIS77      -0.2715
     80  CB         9.1660   32.2200    4.5260 C.3    77  HIS77       0.0785
     81  CG         8.8030   32.4920    3.0980 C.ar   77  HIS77       0.0821
     82  ND1        8.0760   33.5990    2.7140 N.ar   77  HIS77      -0.2267
     83  CD2        9.0370   31.7860    1.9640 C.ar   77  HIS77       0.1154
     84  CE1        7.8780   33.5640    1.4090 C.ar   77  HIS77       0.1986
     85  NE2        8.4500   32.4750    0.9290 N.ar   77  HIS77      -0.2212
     86  N          8.2100   30.6770    7.5380 N.am   78  GLN78      -0.1963
     87  CA         8.5370   29.5570    8.4120 C.3    78  GLN78       0.1733
     88  C          7.9500   29.7030    9.8080 C.2    78  GLN78       0.2616
     89  O          7.8060   30.8160   10.3130 O.2    78  GLN78      -0.2715
     90  CB        10.0530   29.3960    8.5180 C.3    78  GLN78       0.0408
     91  CG        10.4670   28.0810    9.1360 C.3    78  GLN78       0.0908
     92  CD        11.8230   27.6170    8.6550 C.2    78  GLN78       0.2608
     93  OE1       12.0110   27.3360    7.4720 O.2    78  GLN78      -0.2717
     94  NE2       12.7780   27.5320    9.5710 N.am   78  GLN78      -0.0878
     95  N          7.6040   28.5770   10.4310 N.am   79  ASP79      -0.1971
     96  CA         7.0660   28.6220   11.7900 C.3    79  ASP79       0.1709
     97  C          8.2100   28.2250   12.7310 C.2    79  ASP79       0.2293
     98  O          9.1650   27.5680   12.3130 O.2    79  ASP79      -0.2864
     99  CB         5.8410   27.7000   11.9530 C.3    79  ASP79       0.1436
    100  CG         6.1920   26.2220   12.0330 C.2    79  ASP79       0.3671
    101  OD1        7.3210   25.8540   12.4010 O.co2  79  ASP79      -0.2456
    102  OD2        5.3100   25.4020   11.7250 O.co2  79  ASP79      -0.2456
    103  N          9.5350   24.4220   13.0530 N.3    82  LYS82      -0.1245
    104  CA        10.4220   23.9500   11.9890 C.3    82  LYS82       0.1561
    105  C         11.8140   24.5660   12.1400 C.2    82  LYS82       0.2260
    106  O         12.8260   23.9060   11.9110 O.2    82  LYS82      -0.2867
    107  CB         9.8470   24.3080   10.6080 C.3    82  LYS82       0.0271
    108  CG         8.4280   23.8110   10.3760 C.3    82  LYS82       0.0035
    109  CD         8.4040   22.4960    9.6060 C.3    82  LYS82       0.0206
    110  CE         7.1420   22.3760    8.7480 C.3    82  LYS82       0.1093
    111  NZ         6.5560   21.0050    8.8110 N.3    82  LYS82      -0.1314
    112  N          4.2580   26.2100   16.8390 N.3   124  GLN124     -0.1231
    113  CA         3.5560   26.1310   15.5590 C.3   124  GLN124      0.1698
    114  C          2.8130   27.4080   15.1630 C.2   124  GLN124      0.2592
    115  O          2.5890   27.6330   13.9670 O.2   124  GLN124     -0.2718
    116  CB         2.5900   24.9470   15.5530 C.3   124  GLN124      0.0381
    117  CG         3.2860   23.5890   15.4600 C.3   124  GLN124      0.0905
    118  CD         2.3150   22.4320   15.2540 C.2   124  GLN124      0.2608
    119  OE1        2.7180   21.3370   14.8540 O.2   124  GLN124     -0.2717
    120  NE2        1.0280   22.6720   15.5230 N.am  124  GLN124     -0.0878
    121  N          2.4180   28.2350   16.1390 N.am  125  ASN125     -0.1974
    122  CA         1.7430   29.4900   15.7960 C.3   125  ASN125      0.1688
    123  C          2.6350   30.7090   15.9620 C.2   125  ASN125      0.2292
    124  O          2.1570   31.8280   16.1400 O.2   125  ASN125     -0.2864
    125  CB         0.5310   29.7180   16.7130 C.3   125  ASN125      0.1181
    126  CG        -0.4930   28.6220   16.6250 C.2   125  ASN125      0.2629
    127  OD1       -0.7040   28.0300   15.5640 O.2   125  ASN125     -0.2716
    128  ND2       -1.1470   28.3430   17.7490 N.am  125  ASN125     -0.0877
    129  N          5.4260   32.5380   13.8190 N.3   127  LEU127     -0.1245
    130  CA         5.9740   32.5510   12.4670 C.3   127  LEU127      0.1561
    131  C          7.0840   33.5560   12.2750 C.2   127  LEU127      0.2260
    132  O          6.9930   34.6910   12.7370 O.2   127  LEU127     -0.2867
    133  CB         4.8470   32.8420   11.4920 C.3   127  LEU127      0.0270
    134  CG         3.6350   31.9580   11.7430 C.3   127  LEU127      0.0019
    135  CD1        2.4920   32.4230   10.8640 C.3   127  LEU127      0.0001
    136  CD2        3.9950   30.5080   11.4540 C.3   127  LEU127      0.0001
    137  N          0.5450   34.1110   15.6430 N.3   137  ALA137     -0.1231
    138  CA        -0.4960   33.7410   14.6820 C.3   137  ALA137      0.1694
    139  C         -1.6290   32.9620   15.3460 C.2   137  ALA137      0.2592
    140  O         -1.4610   32.4190   16.4330 O.2   137  ALA137     -0.2718
    141  CB         0.1010   32.9000   13.5560 C.3   137  ALA137      0.0304
    142  N         -2.7560   32.8790   14.6530 N.am  138  ASP138     -0.1974
    143  CA        -3.9190   32.1260   15.1190 C.3   138  ASP138      0.1709
    144  C         -4.3620   32.4090   16.5470 C.2   138  ASP138      0.2293
    145  O         -4.5330   31.4840   17.3450 O.2   138  ASP138     -0.2864
    146  CB        -3.6470   30.6320   14.9780 C.3   138  ASP138      0.1436
    147  CG        -4.6310   29.9520   14.0630 C.2   138  ASP138      0.3671
    148  OD1       -5.2940   30.6550   13.2670 O.co2 138  ASP138     -0.2456
    149  OD2       -4.7430   28.7120   14.1380 O.co2 138  ASP138     -0.2456
@<TRIPOS>BOND
     1    85    84   ar
     2    85    83   ar
     3    84    82   ar
     4    83    81   ar
     5    65    63   ar
     6    65    67   ar
     7    63    62   ar
     8    67    66   ar
     9    82    81   ar
    10    62    61    1
    11    62    64   ar
    12    81    80    1
    13    61    58    1
    14    66    64   ar
    15    16    17    1
    16     7     5    1
    17    60    59    2
    18    17    18    1
    19    17    20    1
    20    18    19    2
    21     1     2    1
    22    80    77    1
    23    58    57    1
    24    58    59    1
    25    57    50   am
    26    40    39    2
    27    59    68   am
    28     8     6    1
    29    71    70    2
    30     5     2    1
    31     5     6    1
    32    77    76    1
    33    77    78    1
    34     2     3    1
    35    12    11    2
    36    11    10    1
    37    49    50    1
    38    49    52    1
    39    49    48    1
    40    21    22    1
    41    50    51    2
    42    79    78    2
    43    39    48   am
    44    39    38    1
    45    70    76   am
    46    70    69    1
    47    37    38    1
    48    68    69    1
    49    78    86   am
    50    52    53    1
    51    69    72    1
    52    23    24    2
    53    23    22    1
    54    38    41    1
    55    22    25    1
    56    10     9    1
    57    10    13    1
    58     3     4    2
    59    14    13    1
    60    53    54    1
    61    55    54   ar
    62    93    92    2
    63    86    87    1
    64    13    15    1
    65    41    42    1
    66    54    56   ar
    67    72    73    1
    68    25    26    1
    69    87    90    1
    70    87    88    1
    71    73    74    1
    72    73    75    1
    73    90    91    1
    74    92    91    1
    75    92    94   am
    76   110   111    1
    77   110   109    1
    78    42    44   ar
    79    42    43   ar
    80    44    46   ar
    81    26    27    1
    82   109   108    1
    83    88    89    2
    84    88    95   am
    85    43    45   ar
    86    46    47   ar
    87    35    34    1
    88   108   107    1
    89    95    96    1
    90    27    28    1
    91   107   104    1
    92   135   134    1
    93    45    47   ar
    94    32    31    1
    95    32    33    2
    96   136   134    1
    97   133   134    1
    98   133   130    1
    99    34    31    1
   100    34    36    1
   101    28    29    1
   102   102   100   ar
   103    31    30    1
   104    96    99    1
   105    96    97    1
   106   106   105    2
   107    99   100    1
   108   104   105    1
   109   104   103    1
   110   100   101   ar
   111   131   130    1
   112   131   132    2
   113    98    97    2
   114   130   129    1
   115   148   147   ar
   116   141   138    1
   117   115   114    2
   118   147   149   ar
   119   147   146    1
   120   142   143    1
   121   142   139   am
   122   138   139    1
   123   138   137    1
   124   119   118    2
   125   146   143    1
   126   143   144    1
   127   114   113    1
   128   114   121   am
   129   118   117    1
   130   118   120   am
   131   139   140    2
   132   117   116    1
   133   116   113    1
   134   113   112    1
   135   127   126    2
   136   122   123    1
   137   122   121    1
   138   122   125    1
   139   123   124    2
   140   144   145    2
   141   126   125    1
   142   126   128   am
