@<TRIPOS>MOLECULE
tmp/1jvqB01.pdb
 212 207 0 0 0
SMALL
GASTEIGER

@<TRIPOS>ATOM
      1  N         38.1880    5.6990    6.2420 N.3    68  ALA68      -0.1231
      2  CA        38.4750    6.5540    7.3660 C.3    68  ALA68       0.1694
      3  C         39.8310    6.1950    7.9290 C.2    68  ALA68       0.2592
      4  O         40.6560    7.0780    8.1540 O.2    68  ALA68      -0.2718
      5  CB        37.4080    6.4130    8.4310 C.3    68  ALA68       0.0304
      6  N         40.0880    4.9090    8.1330 N.am   69  PHE69      -0.1976
      7  CA        41.3720    4.5300    8.7130 C.3    69  PHE69       0.1639
      8  C         42.5290    4.6480    7.7230 C.2    69  PHE69       0.2290
      9  O         43.6920    4.7290    8.1170 O.2    69  PHE69      -0.2864
     10  CB        41.2910    3.1330    9.3780 C.3    69  PHE69       0.0560
     11  CG        40.5230    3.1330   10.6890 C.ar   69  PHE69      -0.0200
     12  CD1       39.1310    3.2650   10.7070 C.ar   69  PHE69      -0.0042
     13  CD2       41.1950    3.0520   11.9160 C.ar   69  PHE69      -0.0042
     14  CE1       38.4170    3.3170   11.9390 C.ar   69  PHE69      -0.0003
     15  CE2       40.4910    3.1050   13.1440 C.ar   69  PHE69      -0.0003
     16  CZ        39.1120    3.2370   13.1510 C.ar   69  PHE69      -0.0000
     17  N         43.5730    8.1430    8.2340 N.3    72  THR72      -0.1218
     18  CA        44.3340    8.2380    9.4700 C.3    72  THR72       0.1862
     19  C         45.7560    7.7050    9.2650 C.2    72  THR72       0.2287
     20  O         46.7060    8.2350    9.8300 O.2    72  THR72      -0.2866
     21  CB        43.6790    7.4020   10.5890 C.3    72  THR72       0.1770
     22  OG1       42.3560    7.8710   10.8420 O.3    72  THR72      -0.2211
     23  CG2       44.4690    7.5100   11.8530 C.3    72  THR72       0.0375
     24  N         50.2990   16.4610    5.3210 N.3   140  TYR140     -0.1241
     25  CA        49.1080   15.7350    5.7460 C.3   140  TYR140      0.1605
     26  C         47.8760   16.4780    5.2310 C.2   140  TYR140      0.2264
     27  O         46.9250   15.8810    4.7420 O.2   140  TYR140     -0.2867
     28  CB        49.0310   15.6690    7.2780 C.3   140  TYR140      0.0534
     29  CG        47.7760   14.9900    7.8000 C.ar  140  TYR140     -0.0201
     30  CD1       47.5200   13.6520    7.5120 C.ar  140  TYR140     -0.0009
     31  CD2       46.8240   15.6980    8.5580 C.ar  140  TYR140     -0.0009
     32  CE1       46.3540   13.0340    7.9460 C.ar  140  TYR140      0.0417
     33  CE2       45.6440   15.0770    9.0080 C.ar  140  TYR140      0.0417
     34  CZ        45.4220   13.7480    8.6890 C.ar  140  TYR140      0.1957
     35  OH        44.2620   13.1190    9.0760 O.3   140  TYR140     -0.2866
     36  N         25.7760   12.2650   14.5290 N.3   183  VAL183     -0.1231
     37  CA        26.8620   11.3200   14.6710 C.3   183  VAL183      0.1692
     38  C         27.5480   11.5580   15.9960 C.2   183  VAL183      0.2592
     39  O         27.7950   10.6170   16.7360 O.2   183  VAL183     -0.2718
     40  CB        27.8640   11.4040   13.5060 C.3   183  VAL183      0.0266
     41  CG1       27.1700   11.0160   12.2450 C.3   183  VAL183      0.0020
     42  CG2       28.4470   12.8020   13.3910 C.3   183  VAL183      0.0020
     43  N         27.8320   12.8180   16.3080 N.am  184  ILE184     -0.1966
     44  CA        28.4820   13.1480   17.5760 C.3   184  ILE184      0.1712
     45  C         27.4630   13.5290   18.6500 C.2   184  ILE184      0.2458
     46  O         26.7820   14.5480   18.5290 O.2   184  ILE184     -0.2730
     47  CB        29.4710   14.3210   17.4070 C.3   184  ILE184      0.0289
     48  CG1       30.5120   13.9470   16.3530 C.3   184  ILE184      0.0022
     49  CG2       30.1140   14.6800   18.7690 C.3   184  ILE184      0.0023
     50  CD1       31.5980   14.9720   16.1750 C.3   184  ILE184      0.0001
     51  N         27.3400   12.7030   19.7060 N.am  185  PRO185     -0.2727
     52  CA        26.4100   12.9430   20.8160 C.3   185  PRO185      0.1402
     53  C         26.8820   14.1810   21.5780 C.2   185  PRO185      0.2269
     54  O         28.0650   14.5130   21.5290 O.2   185  PRO185     -0.2865
     55  CB        26.5320   11.6690   21.6510 C.3   185  PRO185      0.0296
     56  CG        26.9360   10.6410   20.6600 C.3   185  PRO185      0.0237
     57  CD        27.9730   11.3820   19.8530 C.3   185  PRO185      0.0939
     58  N         27.7970   14.6930   24.4060 N.3   187  GLU187     -0.1231
     59  CA        28.8810   14.4750   25.3580 C.3   187  GLU187      0.1699
     60  C         30.3170   14.6250   24.8290 C.2   187  GLU187      0.2592
     61  O         31.0520   15.5000   25.2880 O.2   187  GLU187     -0.2718
     62  CB        28.7070   13.1070   26.0430 C.3   187  GLU187      0.0402
     63  CG        28.7710   11.8800   25.1340 C.3   187  GLU187      0.1161
     64  CD        30.1790   11.3320   24.9800 C.2   187  GLU187      0.3649
     65  OE1       30.8640   11.1520   26.0110 O.co2 187  GLU187     -0.2457
     66  OE2       30.5950   11.0730   23.8300 O.co2 187  GLU187     -0.2457
     67  N         30.7070   13.7800   23.8740 N.am  188  ALA188     -0.1966
     68  CA        32.0560   13.8020   23.3100 C.3   188  ALA188      0.1728
     69  C         32.4710   15.1740   22.7860 C.2   188  ALA188      0.2616
     70  O         31.6890   16.1200   22.8240 O.2   188  ALA188     -0.2715
     71  CB        32.1700   12.7660   22.2230 C.3   188  ALA188      0.0334
     72  N         33.6960   15.2680   22.2770 N.am  189  ILE189     -0.1977
     73  CA        34.2460   16.5380   21.7970 C.3   189  ILE189      0.1596
     74  C         34.3740   17.4690   23.0020 C.2   189  ILE189      0.2287
     75  O         33.3650   17.9250   23.5450 O.2   189  ILE189     -0.2864
     76  CB        33.3430   17.2510   20.7670 C.3   189  ILE189      0.0276
     77  CG1       33.4080   16.5510   19.4210 C.3   189  ILE189      0.0022
     78  CG2       33.8150   18.6930   20.5740 C.3   189  ILE189      0.0022
     79  CD1       32.7230   17.3450   18.3110 C.3   189  ILE189      0.0001
     80  N         40.3870   18.6580   24.8110 N.3   192  LEU192     -0.1231
     81  CA        41.5070   17.7460   24.6030 C.3   192  LEU192      0.1693
     82  C         41.3850   17.2040   23.1800 C.2   192  LEU192      0.2593
     83  O         42.3210   16.6180   22.6240 O.2   192  LEU192     -0.2718
     84  CB        41.4290   16.5820   25.5980 C.3   192  LEU192      0.0284
     85  CG        41.4160   16.8770   27.1030 C.3   192  LEU192      0.0019
     86  CD1       40.1980   17.7120   27.4820 C.3   192  LEU192      0.0001
     87  CD2       41.4100   15.5570   27.8620 C.3   192  LEU192      0.0001
     88  N         40.1960   17.3990   22.6180 N.am  193  THR193     -0.1939
     89  CA        39.8600   16.9790   21.2640 C.3   193  THR193      0.2028
     90  C         40.5270   17.9410   20.2970 C.2   193  THR193      0.2642
     91  O         40.2480   19.1330   20.3230 O.2   193  THR193     -0.2714
     92  CB        38.3300   17.0320   21.0430 C.3   193  THR193      0.1808
     93  OG1       37.7000   15.9600   21.7650 O.3   193  THR193     -0.2208
     94  CG2       37.9990   16.9380   19.5550 C.3   193  THR193      0.0379
     95  N         41.3990   17.4270   19.4360 N.am  194  VAL194     -0.1963
     96  CA        42.0870   18.2900   18.4980 C.3   194  VAL194      0.1727
     97  C         41.7290   17.9960   17.0530 C.2   194  VAL194      0.2616
     98  O         41.9050   18.8400   16.1700 O.2   194  VAL194     -0.2715
     99  CB        43.6070   18.1650   18.6690 C.3   194  VAL194      0.0290
    100  CG1       43.9410   18.2070   20.1400 C.3   194  VAL194      0.0023
    101  CG2       44.1210   16.8910   18.0470 C.3   194  VAL194      0.0023
    102  N         41.2130   16.8080   16.7960 N.am  195  LEU195     -0.1963
    103  CA        40.8880   16.4760   15.4270 C.3   195  LEU195      0.1728
    104  C         39.7740   15.4770   15.2910 C.2   195  LEU195      0.2616
    105  O         39.7710   14.4420   15.9530 O.2   195  LEU195     -0.2715
    106  CB        42.1210   15.9180   14.7200 C.3   195  LEU195      0.0311
    107  CG        41.8870   15.4510   13.2830 C.3   195  LEU195      0.0022
    108  CD1       41.6410   16.6750   12.3540 C.3   195  LEU195      0.0001
    109  CD2       43.1050   14.6480   12.8250 C.3   195  LEU195      0.0001
    110  N         38.8240   15.7970   14.4230 N.am  196  VAL196     -0.1963
    111  CA        37.7240   14.8950   14.1620 C.3   196  VAL196      0.1727
    112  C         37.8150   14.5340   12.6800 C.2   196  VAL196      0.2616
    113  O         37.6110   15.3880   11.8170 O.2   196  VAL196     -0.2715
    114  CB        36.3760   15.5470   14.4230 C.3   196  VAL196      0.0290
    115  CG1       35.2690   14.5730   14.0240 C.3   196  VAL196      0.0023
    116  CG2       36.2420   15.9300   15.8870 C.3   196  VAL196      0.0023
    117  N         38.1610   13.2840   12.3850 N.am  197  LEU197     -0.1963
    118  CA        38.2460   12.8450   10.9960 C.3   197  LEU197      0.1728
    119  C         36.9240   12.1610   10.6160 C.2   197  LEU197      0.2616
    120  O         36.3250   11.4340   11.4040 O.2   197  LEU197     -0.2715
    121  CB        39.4330   11.9070   10.8280 C.3   197  LEU197      0.0311
    122  CG        39.7010   11.3540    9.4440 C.3   197  LEU197      0.0022
    123  CD1       41.0810   10.7400    9.4160 C.3   197  LEU197      0.0001
    124  CD2       38.6230   10.3160    9.0990 C.3   197  LEU197      0.0001
    125  N         36.4550   12.4100    9.4010 N.am  198  VAL198     -0.1977
    126  CA        35.1740   11.8320    8.9900 C.3   198  VAL198      0.1596
    127  C         34.9670   11.4630    7.5260 C.2   198  VAL198      0.2287
    128  O         35.2620   12.2480    6.6270 O.2   198  VAL198     -0.2864
    129  CB        34.0220   12.7800    9.3860 C.3   198  VAL198      0.0276
    130  CG1       32.7280   12.3250    8.7360 C.3   198  VAL198      0.0022
    131  CG2       33.8720   12.8080   10.8930 C.3   198  VAL198      0.0022
    132  N         33.9080    1.2890   17.2340 N.3   313  LEU313     -0.1245
    133  CA        34.7100    0.2900   16.5510 C.3   313  LEU313      0.1561
    134  C         35.9710   -0.0740   17.3130 C.2   313  LEU313      0.2260
    135  O         36.6630   -1.0270   16.9590 O.2   313  LEU313     -0.2867
    136  CB        35.1410    0.8380   15.1980 C.3   313  LEU313      0.0270
    137  CG        34.1070    1.2770   14.1730 C.3   313  LEU313      0.0019
    138  CD1       34.7240    2.2810   13.2530 C.3   313  LEU313      0.0001
    139  CD2       33.6260    0.0740   13.4000 C.3   313  LEU313      0.0001
    140  N         51.3890    9.0010   15.6850 N.3   333  LEU333     -0.1245
    141  CA        50.7750    9.7650   14.5910 C.3   333  LEU333      0.1561
    142  C         51.5690   11.0780   14.4110 C.2   333  LEU333      0.2260
    143  O         51.0120   12.1780   14.3830 O.2   333  LEU333     -0.2867
    144  CB        49.3120   10.0750   14.9460 C.3   333  LEU333      0.0270
    145  CG        48.4460    8.8200   15.1510 C.3   333  LEU333      0.0019
    146  CD1       47.1580    9.1540   15.8870 C.3   333  LEU333      0.0001
    147  CD2       48.1730    8.1730   13.7810 C.3   333  LEU333      0.0001
    148  N         50.5020   14.0760   11.5770 N.3   336  ILE336     -0.1245
    149  CA        49.3170   14.9130   11.5560 C.3   336  ILE336      0.1561
    150  C         49.4640   16.3480   12.0370 C.2   336  ILE336      0.2260
    151  O         49.2840   17.2860   11.2600 O.2   336  ILE336     -0.2867
    152  CB        48.1800   14.2290   12.3360 C.3   336  ILE336      0.0252
    153  CG1       47.8720   12.8760   11.7040 C.3   336  ILE336      0.0019
    154  CG2       46.9250   15.0950   12.3230 C.3   336  ILE336      0.0019
    155  CD1       46.9880   12.0010   12.5700 C.3   336  ILE336      0.0001
    156  N         49.6080   11.9830   20.2630 N.3   344  LEU344     -0.1231
    157  CA        48.2950   12.0890   19.6400 C.3   344  LEU344      0.1693
    158  C         47.8360   10.6640   19.4130 C.2   344  LEU344      0.2592
    159  O         48.5710    9.8570   18.8280 O.2   344  LEU344     -0.2718
    160  CB        48.3710   12.7920   18.2760 C.3   344  LEU344      0.0284
    161  CG        47.1400   13.6070   17.8220 C.3   344  LEU344      0.0019
    162  CD1       46.9920   13.5120   16.3240 C.3   344  LEU344      0.0001
    163  CD2       45.8800   13.1010   18.4820 C.3   344  LEU344      0.0001
    164  N         46.6380   10.3480   19.8900 N.am  345  TYR345     -0.1962
    165  CA        46.1000    9.0090   19.7180 C.3   345  TYR345      0.1771
    166  C         44.5860    9.0740   19.4780 C.2   345  TYR345      0.2619
    167  O         43.9330   10.0670   19.7780 O.2   345  TYR345     -0.2715
    168  CB        46.4070    8.1620   20.9580 C.3   345  TYR345      0.0574
    169  CG        45.5850    8.5640   22.1490 C.ar  345  TYR345     -0.0198
    170  CD1       44.5030    7.7920   22.5600 C.ar  345  TYR345     -0.0009
    171  CD2       45.8160    9.7820   22.7970 C.ar  345  TYR345     -0.0009
    172  CE1       43.6600    8.2290   23.5820 C.ar  345  TYR345      0.0417
    173  CE2       44.9790   10.2300   23.8210 C.ar  345  TYR345      0.0417
    174  CZ        43.9030    9.4510   24.2030 C.ar  345  TYR345      0.1957
    175  OH        43.0550    9.8980   25.1850 O.3   345  TYR345     -0.2866
    176  N         44.0250    8.0130   18.9240 N.am  346  VAL346     -0.1963
    177  CA        42.6000    7.9860   18.6890 C.3   346  VAL346      0.1727
    178  C         41.9040    7.6240   19.9900 C.2   346  VAL346      0.2617
    179  O         42.1300    6.5500   20.5690 O.2   346  VAL346     -0.2715
    180  CB        42.2510    6.9500   17.6210 C.3   346  VAL346      0.0290
    181  CG1       40.7330    6.8910   17.4200 C.3   346  VAL346      0.0023
    182  CG2       42.9570    7.3070   16.3420 C.3   346  VAL346      0.0023
    183  N         41.0690    8.5380   20.4580 N.am  347  SER347     -0.1936
    184  CA        40.3100    8.3250   21.6750 C.3   347  SER347      0.2055
    185  C         39.1730    7.3310   21.3850 C.2   347  SER347      0.2643
    186  O         38.9700    6.3510   22.1070 O.2   347  SER347     -0.2714
    187  CB        39.7500    9.6540   22.1500 C.3   347  SER347      0.2130
    188  OG        39.4200    9.5790   23.5160 O.3   347  SER347     -0.2179
    189  N         38.4340    7.5830   20.3120 N.am  348  ASP348     -0.1957
    190  CA        37.3540    6.6930   19.9240 C.3   348  ASP348      0.1840
    191  C         37.0880    6.7840   18.4240 C.2   348  ASP348      0.2622
    192  O         37.5750    7.6840   17.7510 O.2   348  ASP348     -0.2715
    193  CB        36.0840    7.0140   20.7140 C.3   348  ASP348      0.1450
    194  CG        35.5570    5.8080   21.4850 C.2   348  ASP348      0.3671
    195  OD1       35.4270    4.7120   20.8880 O.co2 348  ASP348     -0.2456
    196  OD2       35.2660    5.9640   22.6930 O.co2 348  ASP348     -0.2456
    197  N         36.3170    5.8340   17.9170 N.am  349  ALA349     -0.1963
    198  CA        35.9830    5.7550   16.5010 C.3   349  ALA349      0.1728
    199  C         34.5690    5.2180   16.4430 C.2   349  ALA349      0.2616
    200  O         34.3000    4.1510   16.9970 O.2   349  ALA349     -0.2715
    201  CB        36.9420    4.7900   15.7780 C.3   349  ALA349      0.0334
    202  N         33.6680    5.9420   15.7800 N.am  350  PHE350     -0.1974
    203  CA        32.2700    5.5080   15.7070 C.3   350  PHE350      0.1639
    204  C         31.7090    5.3190   14.3000 C.2   350  PHE350      0.2290
    205  O         31.9670    6.1040   13.3920 O.2   350  PHE350     -0.2864
    206  CB        31.3820    6.4940   16.4730 C.3   350  PHE350      0.0560
    207  CG        31.6120    6.4810   17.9320 C.ar  350  PHE350     -0.0200
    208  CD1       30.9540    5.5520   18.7480 C.ar  350  PHE350     -0.0042
    209  CD2       32.5660    7.3300   18.5060 C.ar  350  PHE350     -0.0042
    210  CE1       31.2490    5.4610   20.1340 C.ar  350  PHE350     -0.0003
    211  CE2       32.8700    7.2500   19.8830 C.ar  350  PHE350     -0.0003
    212  CZ        32.2120    6.3120   20.6970 C.ar  350  PHE350     -0.0000
@<TRIPOS>BOND
     1    27    26    2
     2    26    25    1
     3    24    25    1
     4    25    28    1
     5     1     2    1
     6   128   127    2
     7    28    29    1
     8     2     3    1
     9     2     5    1
    10    30    29   ar
    11    30    32   ar
    12   127   126    1
    13     8     9    2
    14     8     7    1
    15    29    31   ar
    16     3     6   am
    17     3     4    2
    18    32    34   ar
    19     6     7    1
    20    17    18    1
    21    31    33   ar
    22    34    33   ar
    23    34    35    1
    24     7    10    1
    25   130   129    1
    26   126   129    1
    27   126   125    1
    28   124   122    1
    29    19    18    1
    30    19    20    2
    31    10    11    1
    32   129   131    1
    33   125   119   am
    34   123   122    1
    35   122   121    1
    36    18    21    1
    37    21    22    1
    38    21    23    1
    39   119   118    1
    40   119   120    2
    41    11    12   ar
    42    11    13   ar
    43    12    14   ar
    44   121   118    1
    45   118   117    1
    46   151   150    2
    47   149   148    1
    48   149   150    1
    49   149   152    1
    50   153   152    1
    51   153   155    1
    52   113   112    2
    53    13    15   ar
    54    14    16   ar
    55    41    40    1
    56   154   152    1
    57   108   107    1
    58   117   112   am
    59   112   111    1
    60   109   107    1
    61    15    16   ar
    62   138   137    1
    63   107   106    1
    64    42    40    1
    65   205   204    2
    66   139   137    1
    67    40    37    1
    68   147   145    1
    69   115   114    1
    70   111   110    1
    71   111   114    1
    72   137   136    1
    73   204   203    1
    74   143   142    2
    75   142   141    1
    76   110   104   am
    77   114   116    1
    78    36    37    1
    79   141   144    1
    80   141   140    1
    81    37    38    1
    82   106   103    1
    83   144   145    1
    84   145   146    1
    85   136   133    1
    86   104   103    1
    87   104   105    2
    88   103   102    1
    89   203   202    1
    90   203   206    1
    91   201   198    1
    92   202   199   am
    93    38    43   am
    94    38    39    2
    95    98    97    2
    96    50    48    1
    97    43    44    1
    98   162   161    1
    99   182   180    1
   100    48    47    1
   101   199   198    1
   102   199   200    2
   103   206   207    1
   104   198   197    1
   105   133   132    1
   106   133   134    1
   107   102    97   am
   108   135   134    2
   109    97    96    1
   110    47    44    1
   111    47    49    1
   112   181   180    1
   113    44    45    1
   114   180   177    1
   115   192   191    2
   116   161   160    1
   117   161   163    1
   118   197   191   am
   119   207   209   ar
   120   207   208   ar
   121   101    99    1
   122   160   157    1
   123    79    77    1
   124   191   190    1
   125    96    99    1
   126    96    95    1
   127   209   211   ar
   128    46    45    2
   129    45    51   am
   130    99   100    1
   131   177   176    1
   132   177   178    1
   133   208   210   ar
   134   159   158    2
   135   176   166   am
   136   158   157    1
   137   158   164   am
   138    77    76    1
   139    95    90   am
   140   166   165    1
   141   166   167    2
   142    94    92    1
   143   157   156    1
   144    51    57    1
   145    51    52    1
   146   165   164    1
   147   165   168    1
   148    57    56    1
   149   211   212   ar
   150   190   189    1
   151   190   193    1
   152   178   183   am
   153   178   179    2
   154   210   212   ar
   155    90    91    2
   156    90    89    1
   157   189   185   am
   158   183   184    1
   159    78    76    1
   160    56    55    1
   161   193   194    1
   162    76    73    1
   163    52    53    1
   164    52    55    1
   165   195   194   ar
   166   168   169    1
   167    92    89    1
   168    92    93    1
   169    89    88    1
   170   185   184    1
   171   185   186    2
   172   194   196   ar
   173    54    53    2
   174   184   187    1
   175    73    72    1
   176    73    74    1
   177   169   170   ar
   178   169   171   ar
   179   187   188    1
   180    71    68    1
   181    72    69   am
   182   170   172   ar
   183    88    82   am
   184    83    82    2
   185    69    70    2
   186    69    68    1
   187   171   173   ar
   188    74    75    2
   189    82    81    1
   190    68    67    1
   191   172   174   ar
   192   173   174   ar
   193    66    64   ar
   194    67    60   am
   195   174   175    1
   196    58    59    1
   197    81    80    1
   198    81    84    1
   199    60    61    2
   200    60    59    1
   201    64    63    1
   202    64    65   ar
   203    63    62    1
   204    59    62    1
   205    84    85    1
   206    85    86    1
   207    85    87    1
