@<TRIPOS>MOLECULE
tmp/1jvzB00.pdb
 154 152 0 0 0
SMALL
GASTEIGER

@<TRIPOS>ATOM
      1  N         65.8360    9.4630   21.6240 N.3     1  SER1       -0.1217
      2  CA        64.3890    9.7620   21.4430 C.3     1  SER1        0.1889
      3  C         64.1250   10.1980   20.0100 C.2     1  SER1        0.2288
      4  O         64.9660   10.8510   19.3980 O.2     1  SER1       -0.2866
      5  CB        63.9560   10.8740   22.4030 C.3     1  SER1        0.2089
      6  OG        64.3130   10.5680   23.7430 O.3     1  SER1       -0.2183
      7  N         59.9760    8.5660   23.0390 N.3    22  PRO22      -0.2102
      8  CA        61.0360    8.9750   23.9660 C.3    22  PRO22       0.1504
      9  C         61.9560    7.8110   24.3670 C.2    22  PRO22       0.2576
     10  O         61.4940    6.6850   24.5390 O.2    22  PRO22      -0.2718
     11  CB        60.2480    9.5340   25.1450 C.3    22  PRO22       0.0282
     12  CG        59.0040    8.7000   25.1450 C.3    22  PRO22       0.0208
     13  CD        58.6530    8.6180   23.6880 C.3    22  PRO22       0.0893
     14  N         63.2530    8.0860   24.5140 N.am   23  HIS23      -0.1962
     15  CA        64.2310    7.0620   24.9020 C.3    23  HIS23       0.1787
     16  C         64.8240    7.3460   26.2770 C.2    23  HIS23       0.2620
     17  O         65.4500    8.3780   26.4790 O.2    23  HIS23      -0.2715
     18  CB        65.3820    6.9840   23.8830 C.3    23  HIS23       0.0785
     19  CG        64.9510    6.5580   22.5150 C.ar   23  HIS23       0.0821
     20  ND1       63.9370    5.6480   22.3060 N.ar   23  HIS23      -0.2267
     21  CD2       65.3990    6.9090   21.2870 C.ar   23  HIS23       0.1154
     22  CE1       63.7750    5.4620   21.0090 C.ar   23  HIS23       0.1986
     23  NE2       64.6490    6.2170   20.3670 N.ar   23  HIS23      -0.2212
     24  N         64.6490    6.4240   27.2160 N.am   24  LEU24      -0.1963
     25  CA        65.1810    6.6070   28.5670 C.3    24  LEU24       0.1728
     26  C         65.5240    5.2750   29.2230 C.2    24  LEU24       0.2616
     27  O         65.1060    4.2190   28.7510 O.2    24  LEU24      -0.2715
     28  CB        64.1640    7.3450   29.4480 C.3    24  LEU24       0.0311
     29  CG        63.9900    8.8470   29.2460 C.3    24  LEU24       0.0022
     30  CD1       62.8300    9.3670   30.0830 C.3    24  LEU24       0.0001
     31  CD2       65.2790    9.5290   29.6330 C.3    24  LEU24       0.0001
     32  N         66.2800    5.3420   30.3170 N.am   25  SER25      -0.1950
     33  CA        66.6840    4.1590   31.0650 C.3    25  SER25       0.1924
     34  C         65.4840    3.2930   31.4210 C.2    25  SER25       0.2314
     35  O         64.4100    3.8040   31.7470 O.2    25  SER25      -0.2863
     36  CB        67.4040    4.5600   32.3530 C.3    25  SER25       0.2116
     37  OG        67.5770    3.4320   33.1970 O.3    25  SER25      -0.2180
     38  N         62.8310    7.6150   38.4330 N.3    30  TYR30      -0.1227
     39  CA        62.1910    8.8420   37.9840 C.3    30  TYR30       0.1736
     40  C         62.0370    8.9550   36.4730 C.2    30  TYR30       0.2595
     41  O         61.4040    9.8900   35.9880 O.2    30  TYR30      -0.2718
     42  CB        62.9090   10.0730   38.5400 C.3    30  TYR30       0.0548
     43  CG        64.3950   10.1260   38.3010 C.ar   30  TYR30      -0.0200
     44  CD1       64.9180   10.4220   37.0420 C.ar   30  TYR30      -0.0009
     45  CD2       65.2830    9.8990   39.3470 C.ar   30  TYR30      -0.0009
     46  CE1       66.3030   10.4940   36.8360 C.ar   30  TYR30       0.0417
     47  CE2       66.6590    9.9630   39.1560 C.ar   30  TYR30       0.0417
     48  CZ        67.1650   10.2620   37.9030 C.ar   30  TYR30       0.1957
     49  OH        68.5300   10.3280   37.7450 O.3    30  TYR30      -0.2866
     50  N         62.5950    7.9980   35.7310 N.am   31  PHE31      -0.1976
     51  CA        62.4910    7.9980   34.2680 C.3    31  PHE31       0.1639
     52  C         61.4190    7.0280   33.7620 C.2    31  PHE31       0.2290
     53  O         61.2550    6.8500   32.5570 O.2    31  PHE31      -0.2864
     54  CB        63.8410    7.6350   33.6290 C.3    31  PHE31       0.0560
     55  CG        64.8140    8.7880   33.5380 C.ar   31  PHE31      -0.0200
     56  CD1       66.1850    8.5450   33.4360 C.ar   31  PHE31      -0.0042
     57  CD2       64.3680   10.1110   33.5300 C.ar   31  PHE31      -0.0042
     58  CE1       67.0990    9.6000   33.3310 C.ar   31  PHE31      -0.0003
     59  CE2       65.2730   11.1740   33.4230 C.ar   31  PHE31      -0.0003
     60  CZ        66.6420   10.9160   33.3240 C.ar   31  PHE31      -0.0000
     61  N         57.9600    5.7140   32.5530 N.3    33  TYR33      -0.1241
     62  CA        56.7740    6.3020   31.9400 C.3    33  TYR33       0.1605
     63  C         55.5200    5.5230   32.3100 C.2    33  TYR33       0.2264
     64  O         55.5640    4.3070   32.4560 O.2    33  TYR33      -0.2867
     65  CB        56.9180    6.3390   30.4190 C.3    33  TYR33       0.0534
     66  CG        57.9050    7.3750   29.9100 C.ar   33  TYR33      -0.0201
     67  CD1       59.0470    6.9900   29.2060 C.ar   33  TYR33      -0.0009
     68  CD2       57.6750    8.7440   30.0970 C.ar   33  TYR33      -0.0009
     69  CE1       59.9270    7.9330   28.6980 C.ar   33  TYR33       0.0417
     70  CE2       58.5530    9.6960   29.5900 C.ar   33  TYR33       0.0417
     71  CZ        59.6740    9.2800   28.8900 C.ar   33  TYR33       0.1957
     72  OH        60.5360   10.2040   28.3640 O.3    33  TYR33      -0.2866
     73  N         56.1430   10.8330   33.0430 N.3    50  GLN50      -0.1245
     74  CA        57.0020   10.2510   34.0720 C.3    50  GLN50       0.1566
     75  C         56.1940   10.0340   35.3520 C.2    50  GLN50       0.2260
     76  O         55.3260   10.8380   35.6730 O.2    50  GLN50      -0.2867
     77  CB        58.2050   11.1510   34.3580 C.3    50  GLN50       0.0367
     78  CG        59.3090   11.0410   33.3220 C.3    50  GLN50       0.0905
     79  CD        59.2210   12.0980   32.2460 C.2    50  GLN50       0.2608
     80  OE1       58.1340   12.5620   31.9000 O.2    50  GLN50      -0.2717
     81  NE2       60.3660   12.4750   31.6930 N.am   50  GLN50      -0.0878
     82  N         52.9260   14.5820   29.8270 N.3    57  ARG57      -0.1231
     83  CA        53.8590   15.2310   28.9050 C.3    57  ARG57       0.1694
     84  C         53.7400   14.7600   27.4500 C.2    57  ARG57       0.2592
     85  O         53.8900   15.5560   26.5220 O.2    57  ARG57      -0.2718
     86  CB        55.3010   15.0740   29.4030 C.3    57  ARG57       0.0321
     87  CG        55.6140   15.9640   30.5980 C.3    57  ARG57       0.0489
     88  CD        57.0690   15.8550   31.0410 C.3    57  ARG57       0.2205
     89  NE        58.0030   16.2000   29.9750 N.pl3  57  ARG57      -0.0865
     90  CZ        58.6900   15.3170   29.2530 C.cat  57  ARG57       0.5346
     91  NH1       58.5560   14.0150   29.4790 N.pl3  57  ARG57       0.1354
     92  NH2       59.5150   15.7410   28.3030 N.pl3  57  ARG57       0.1354
     93  N         53.4730   13.4740   27.2460 N.am   58  PHE58      -0.1976
     94  CA        53.3080   12.9570   25.8990 C.3    58  PHE58       0.1639
     95  C         51.8320   12.6530   25.7360 C.2    58  PHE58       0.2290
     96  O         51.4020   11.5180   25.9360 O.2    58  PHE58      -0.2864
     97  CB        54.1290   11.6850   25.7030 C.3    58  PHE58       0.0560
     98  CG        55.6030   11.8830   25.8870 C.ar   58  PHE58      -0.0200
     99  CD1       56.1420   12.0950   27.1570 C.ar   58  PHE58      -0.0042
    100  CD2       56.4590   11.8510   24.7940 C.ar   58  PHE58      -0.0042
    101  CE1       57.5180   12.2690   27.3360 C.ar   58  PHE58      -0.0003
    102  CE2       57.8360   12.0260   24.9580 C.ar   58  PHE58      -0.0003
    103  CZ        58.3660   12.2340   26.2320 C.ar   58  PHE58      -0.0000
    104  N         57.9870   14.8850   22.9840 N.3    67  ASN67      -0.1225
    105  CA        59.2130   15.5320   23.4490 C.3    67  ASN67       0.1785
    106  C         60.5170   14.7740   23.1990 C.2    67  ASN67       0.2598
    107  O         60.5400   13.5450   23.1760 O.2    67  ASN67      -0.2718
    108  CB        59.1020   15.7730   24.9630 C.3    67  ASN67       0.1169
    109  CG        57.8450   16.5360   25.3560 C.2    67  ASN67       0.2627
    110  OD1       57.8140   17.7650   25.3130 O.2    67  ASN67      -0.2716
    111  ND2       56.7990   15.8070   25.7350 N.am   67  ASN67      -0.0877
    112  N         61.6050   15.5230   23.0360 N.am   68  THR68      -0.1939
    113  CA        62.9350   14.9370   22.8560 C.3    68  THR68       0.2028
    114  C         63.9160   15.8410   23.5740 C.2    68  THR68       0.2642
    115  O         63.6080   16.9900   23.8720 O.2    68  THR68      -0.2714
    116  CB        63.3870   14.8420   21.3820 C.3    68  THR68       0.1808
    117  OG1       63.5470   16.1590   20.8460 O.3    68  THR68      -0.2208
    118  CG2       62.3800   14.0550   20.5560 C.3    68  THR68       0.0379
    119  N         65.1030   15.3270   23.8440 N.am   69  VAL69      -0.1977
    120  CA        66.1010   16.1060   24.5520 C.3    69  VAL69       0.1596
    121  C         66.8940   17.0300   23.6100 C.2    69  VAL69       0.2287
    122  O         67.3830   16.5880   22.5670 O.2    69  VAL69      -0.2864
    123  CB        67.0590   15.1540   25.3150 C.3    69  VAL69       0.0276
    124  CG1       68.1300   14.6220   24.3830 C.3    69  VAL69       0.0022
    125  CG2       67.6690   15.8600   26.4880 C.3    69  VAL69       0.0022
    126  N         63.7430   20.9180   26.4900 N.3   171  PHE171     -0.1241
    127  CA        63.1230   19.9870   25.5460 C.3   171  PHE171      0.1605
    128  C         62.7420   20.5610   24.1930 C.2   171  PHE171      0.2264
    129  O         62.4660   21.7530   24.0630 O.2   171  PHE171     -0.2867
    130  CB        61.8410   19.3750   26.1260 C.3   171  PHE171      0.0534
    131  CG        62.0380   18.6110   27.3970 C.ar  171  PHE171     -0.0203
    132  CD1       61.2550   18.8950   28.5120 C.ar  171  PHE171     -0.0042
    133  CD2       62.9690   17.5840   27.4750 C.ar  171  PHE171     -0.0042
    134  CE1       61.3940   18.1690   29.6840 C.ar  171  PHE171     -0.0003
    135  CE2       63.1160   16.8500   28.6420 C.ar  171  PHE171     -0.0003
    136  CZ        62.3280   17.1420   29.7500 C.ar  171  PHE171     -0.0000
    137  N         67.2320   14.0510   18.9480 N.3   238  ASN238     -0.1240
    138  CA        68.2840   14.5060   19.8480 C.3   238  ASN238      0.1653
    139  C         69.4470   15.1550   19.1000 C.2   238  ASN238      0.2266
    140  O         70.4930   15.4540   19.6780 O.2   238  ASN238     -0.2867
    141  CB        68.7910   13.3440   20.7160 C.3   238  ASN238      0.1155
    142  CG        67.7030   12.7600   21.6080 C.2   238  ASN238      0.2627
    143  OD1       67.7470   11.4470   21.8190 O.2   238  ASN238     -0.2716
    144  ND2       66.8430   13.4840   22.1120 N.am  238  ASN238     -0.0877
    145  N         68.5810    0.7840   28.0030 N.3   443  HIS443     -0.1241
    146  CA        68.0040    2.0640   27.6040 C.3   443  HIS443      0.1621
    147  C         67.4390    1.8930   26.1870 C.2   443  HIS443      0.2264
    148  O         67.8570    0.9860   25.4660 O.2   443  HIS443     -0.2867
    149  CB        69.1200    3.1100   27.6240 C.3   443  HIS443      0.0745
    150  CG        68.8950    4.2730   26.7110 C.ar  443  HIS443      0.0817
    151  ND1       68.0470    5.3140   27.0230 N.ar  443  HIS443     -0.2268
    152  CD2       69.4270    4.5710   25.5030 C.ar  443  HIS443      0.1154
    153  CE1       68.0680    6.2040   26.0450 C.ar  443  HIS443      0.1986
    154  NE2       68.8980    5.7750   25.1120 N.ar  443  HIS443     -0.2212
@<TRIPOS>BOND
     1   137   138    1
     2   139   140    2
     3   139   138    1
     4     4     3    2
     5   138   141    1
     6     3     2    1
     7    23    22   ar
     8    23    21   ar
     9   118   116    1
    10   141   142    1
    11   117   116    1
    12    22    20   ar
    13    21    19   ar
    14   116   113    1
    15     2     1    1
    16     2     5    1
    17   142   143    2
    18   142   144   am
    19    20    19   ar
    20     5     6    1
    21    19    18    1
    22   122   121    2
    23   113   112    1
    24   113   114    1
    25   104   105    1
    26   112   106   am
    27     7    13    1
    28     7     8    1
    29   107   106    2
    30   106   105    1
    31   105   108    1
    32   114   119   am
    33   114   115    2
    34   121   120    1
    35    13    12    1
    36   119   120    1
    37    18    15    1
    38     8     9    1
    39     8    11    1
    40   129   128    2
    41   128   127    1
    42     9    14   am
    43     9    10    2
    44   124   123    1
    45    14    15    1
    46   120   123    1
    47   100   102   ar
    48   100    98   ar
    49    15    16    1
    50   102   103   ar
    51   108   109    1
    52   154   152   ar
    53   154   153   ar
    54    11    12    1
    55   110   109    2
    56   123   125    1
    57   109   111   am
    58   148   147    2
    59   152   150   ar
    60   127   130    1
    61   127   126    1
    62    97    98    1
    63    97    94    1
    64    95    94    1
    65    95    96    2
    66    98    99   ar
    67    94    93    1
    68   153   151   ar
    69   130   131    1
    70   147   146    1
    71   103   101   ar
    72    16    17    2
    73    16    24   am
    74    85    84    2
    75   150   151   ar
    76   150   149    1
    77    99   101   ar
    78    24    25    1
    79    93    84   am
    80   131   133   ar
    81   131   132   ar
    82    84    83    1
    83   133   135   ar
    84   146   149    1
    85   146   145    1
    86    92    90    1
    87    72    71    1
    88   132   134   ar
    89    25    26    1
    90    25    28    1
    91   135   136   ar
    92    69    71   ar
    93    69    67   ar
    94    27    26    2
    95    71    70   ar
    96    83    86    1
    97    83    82    1
    98    67    66   ar
    99    26    32   am
   100    29    28    1
   101    29    31    1
   102    29    30    1
   103    90    91    1
   104    90    89    2
   105    86    87    1
   106    70    68   ar
   107   134   136   ar
   108    66    68   ar
   109    66    65    1
   110    89    88    1
   111    32    33    1
   112    65    62    1
   113    87    88    1
   114    33    34    1
   115    33    36    1
   116    34    35    2
   117    81    79   am
   118    80    79    2
   119    62    63    1
   120    62    61    1
   121    79    78    1
   122    63    64    2
   123    36    37    1
   124    53    52    2
   125    73    74    1
   126    78    77    1
   127    60    58   ar
   128    60    59   ar
   129    58    56   ar
   130    59    57   ar
   131    56    55   ar
   132    57    55   ar
   133    55    54    1
   134    54    51    1
   135    52    51    1
   136    74    77    1
   137    74    75    1
   138    51    50    1
   139    75    76    2
   140    50    40   am
   141    41    40    2
   142    40    39    1
   143    46    44   ar
   144    46    48   ar
   145    44    43   ar
   146    49    48    1
   147    48    47   ar
   148    39    38    1
   149    39    42    1
   150    43    42    1
   151    43    45   ar
   152    47    45   ar
