@<TRIPOS>MOLECULE
tmp/1jw0B00.pdb
 136 133 0 0 0
SMALL
GASTEIGER

@<TRIPOS>ATOM
      1  N         65.7990    9.5620   21.7310 N.3     1  SER1       -0.1217
      2  CA        64.3590    9.8400   21.4580 C.3     1  SER1        0.1889
      3  C         64.1270   10.2920   20.0230 C.2     1  SER1        0.2288
      4  O         64.9510   11.0040   19.4460 O.2     1  SER1       -0.2866
      5  CB        63.8480   10.9150   22.4100 C.3     1  SER1        0.2089
      6  OG        64.0530   10.5180   23.7520 O.3     1  SER1       -0.2183
      7  N         60.0050    8.5990   23.0240 N.3    22  PRO22      -0.2102
      8  CA        61.0690    8.9760   23.9650 C.3    22  PRO22       0.1504
      9  C         61.9820    7.8230   24.3770 C.2    22  PRO22       0.2576
     10  O         61.5060    6.7160   24.6470 O.2    22  PRO22      -0.2718
     11  CB        60.2920    9.5390   25.1510 C.3    22  PRO22       0.0282
     12  CG        59.0660    8.6690   25.1670 C.3    22  PRO22       0.0208
     13  CD        58.6900    8.5930   23.6930 C.3    22  PRO22       0.0893
     14  N         63.2870    8.0810   24.4260 N.am   23  HIS23      -0.1962
     15  CA        64.2510    7.0600   24.8380 C.3    23  HIS23       0.1787
     16  C         64.8460    7.3930   26.2050 C.2    23  HIS23       0.2620
     17  O         65.4860    8.4290   26.3770 O.2    23  HIS23      -0.2715
     18  CB        65.3940    6.9250   23.8190 C.3    23  HIS23       0.0785
     19  CG        64.9440    6.5240   22.4510 C.ar   23  HIS23       0.0821
     20  ND1       63.8840    5.6690   22.2400 N.ar   23  HIS23      -0.2267
     21  CD2       65.4130    6.8530   21.2240 C.ar   23  HIS23       0.1154
     22  CE1       63.7160    5.4920   20.9410 C.ar   23  HIS23       0.1986
     23  NE2       64.6320    6.1990   20.3030 N.ar   23  HIS23      -0.2212
     24  N         64.6410    6.5040   27.1710 N.am   24  LEU24      -0.1977
     25  CA        65.1550    6.7000   28.5260 C.3    24  LEU24       0.1596
     26  C         65.5220    5.3620   29.1570 C.2    24  LEU24       0.2287
     27  O         65.1720    4.3060   28.6290 O.2    24  LEU24      -0.2864
     28  CB        64.1040    7.4010   29.4060 C.3    24  LEU24       0.0297
     29  CG        63.9280    8.9170   29.2860 C.3    24  LEU24       0.0022
     30  CD1       62.7870    9.3750   30.1770 C.3    24  LEU24       0.0001
     31  CD2       65.2170    9.6140   29.7040 C.3    24  LEU24       0.0001
     32  N         62.6050    8.0030   35.7250 N.3    31  PHE31      -0.1241
     33  CA        62.5290    8.0360   34.2660 C.3    31  PHE31       0.1605
     34  C         61.4720    7.0590   33.7440 C.2    31  PHE31       0.2264
     35  O         61.3090    6.9010   32.5350 O.2    31  PHE31      -0.2867
     36  CB        63.8910    7.6910   33.6500 C.3    31  PHE31       0.0534
     37  CG        64.8300    8.8640   33.5290 C.ar   31  PHE31      -0.0203
     38  CD1       66.1810    8.6600   33.2560 C.ar   31  PHE31      -0.0042
     39  CD2       64.3670   10.1710   33.6730 C.ar   31  PHE31      -0.0042
     40  CE1       67.0610    9.7370   33.1290 C.ar   31  PHE31      -0.0003
     41  CE2       65.2400   11.2560   33.5460 C.ar   31  PHE31      -0.0003
     42  CZ        66.5880   11.0380   33.2730 C.ar   31  PHE31      -0.0000
     43  N         58.0330    5.7850   32.5620 N.3    33  TYR33      -0.1241
     44  CA        56.8270    6.3750   32.0000 C.3    33  TYR33       0.1605
     45  C         55.5860    5.5950   32.3990 C.2    33  TYR33       0.2264
     46  O         55.6510    4.3850   32.6410 O.2    33  TYR33      -0.2867
     47  CB        56.9150    6.4260   30.4800 C.3    33  TYR33       0.0534
     48  CG        57.9340    7.4070   29.9590 C.ar   33  TYR33      -0.0201
     49  CD1       59.0270    6.9690   29.2180 C.ar   33  TYR33      -0.0009
     50  CD2       57.7760    8.7840   30.1620 C.ar   33  TYR33      -0.0009
     51  CE1       59.9360    7.8690   28.6840 C.ar   33  TYR33       0.0417
     52  CE2       58.6840    9.6970   29.6290 C.ar   33  TYR33       0.0417
     53  CZ        59.7620    9.2300   28.8870 C.ar   33  TYR33       0.1957
     54  OH        60.6580   10.1120   28.3290 O.3    33  TYR33      -0.2866
     55  N         56.3230   10.8170   33.0610 N.3    50  GLN50      -0.1245
     56  CA        57.1600   10.2360   34.1070 C.3    50  GLN50       0.1566
     57  C         56.3510   10.0730   35.3940 C.2    50  GLN50       0.2260
     58  O         55.5570   10.9470   35.7530 O.2    50  GLN50      -0.2867
     59  CB        58.4030   11.0990   34.3590 C.3    50  GLN50       0.0367
     60  CG        59.4590   10.9760   33.2680 C.3    50  GLN50       0.0905
     61  CD        59.3690   12.0730   32.2280 C.2    50  GLN50       0.2608
     62  OE1       58.2780   12.5460   31.8900 O.2    50  GLN50      -0.2717
     63  NE2       60.5230   12.4800   31.7030 N.am   50  GLN50      -0.0878
     64  N         53.0240   14.5140   29.8060 N.3    57  ARG57      -0.1231
     65  CA        53.9450   15.1770   28.8930 C.3    57  ARG57       0.1694
     66  C         53.8330   14.7020   27.4390 C.2    57  ARG57       0.2592
     67  O         53.9370   15.5100   26.5210 O.2    57  ARG57      -0.2718
     68  CB        55.3820   15.0480   29.4060 C.3    57  ARG57       0.0321
     69  CG        55.6440   15.9390   30.6210 C.3    57  ARG57       0.0489
     70  CD        57.1050   15.9600   31.0400 C.3    57  ARG57       0.2205
     71  NE        57.9730   16.3860   29.9520 N.pl3  57  ARG57      -0.0865
     72  CZ        58.7320   15.5650   29.2310 C.cat  57  ARG57       0.5346
     73  NH1       58.7360   14.2620   29.4860 N.pl3  57  ARG57       0.1354
     74  NH2       59.4780   16.0500   28.2450 N.pl3  57  ARG57       0.1354
     75  N         53.6210   13.4050   27.2250 N.am   58  PHE58      -0.1976
     76  CA        53.4630   12.8690   25.8720 C.3    58  PHE58       0.1639
     77  C         51.9780   12.5960   25.7060 C.2    58  PHE58       0.2290
     78  O         51.5060   11.4820   25.9400 O.2    58  PHE58      -0.2864
     79  CB        54.2640   11.5750   25.6990 C.3    58  PHE58       0.0560
     80  CG        55.7370   11.7630   25.8600 C.ar   58  PHE58      -0.0200
     81  CD1       56.2980   11.9160   27.1260 C.ar   58  PHE58      -0.0042
     82  CD2       56.5610   11.8470   24.7450 C.ar   58  PHE58      -0.0042
     83  CE1       57.6660   12.1550   27.2860 C.ar   58  PHE58      -0.0003
     84  CE2       57.9240   12.0840   24.8840 C.ar   58  PHE58      -0.0003
     85  CZ        58.4800   12.2410   26.1640 C.ar   58  PHE58      -0.0000
     86  N         58.1100   14.8050   23.0300 N.3    67  ASN67      -0.1225
     87  CA        59.3140   15.4830   23.4970 C.3    67  ASN67       0.1785
     88  C         60.6050   14.7020   23.2770 C.2    67  ASN67       0.2598
     89  O         60.6240   13.4830   23.3810 O.2    67  ASN67      -0.2718
     90  CB        59.1920   15.7700   25.0040 C.3    67  ASN67       0.1169
     91  CG        57.8630   16.4260   25.3870 C.2    67  ASN67       0.2627
     92  OD1       57.7520   17.6530   25.4400 O.2    67  ASN67      -0.2716
     93  ND2       56.8470   15.6030   25.6530 N.am   67  ASN67      -0.0877
     94  N         61.6760   15.4180   22.9630 N.am   68  THR68      -0.1939
     95  CA        62.9940   14.8120   22.8160 C.3    68  THR68       0.2028
     96  C         63.8940   15.7670   23.5810 C.2    68  THR68       0.2642
     97  O         63.4860   16.8910   23.8970 O.2    68  THR68      -0.2714
     98  CB        63.5000   14.7370   21.3570 C.3    68  THR68       0.1808
     99  OG1       63.7700   16.0570   20.8770 O.3    68  THR68      -0.2208
    100  CG2       62.4830   14.0460   20.4600 C.3    68  THR68       0.0379
    101  N         65.1060   15.3200   23.8800 N.am   69  VAL69      -0.1977
    102  CA        66.0580   16.1320   24.6250 C.3    69  VAL69       0.1596
    103  C         66.8800   17.0360   23.7060 C.2    69  VAL69       0.2287
    104  O         67.4640   16.5630   22.7330 O.2    69  VAL69      -0.2864
    105  CB        66.9950   15.2080   25.4690 C.3    69  VAL69       0.0276
    106  CG1       68.3760   15.8100   25.6060 C.3    69  VAL69       0.0022
    107  CG2       66.3900   14.9940   26.8560 C.3    69  VAL69       0.0022
    108  N         63.7930   20.8660   26.4580 N.3   171  PHE171     -0.1241
    109  CA        63.1660   19.9450   25.5100 C.3   171  PHE171      0.1605
    110  C         62.8220   20.4790   24.1370 C.2   171  PHE171      0.2264
    111  O         62.5250   21.6620   23.9570 O.2   171  PHE171     -0.2867
    112  CB        61.8640   19.3580   26.0750 C.3   171  PHE171      0.0534
    113  CG        62.0260   18.6150   27.3610 C.ar  171  PHE171     -0.0203
    114  CD1       61.3210   19.0170   28.4960 C.ar  171  PHE171     -0.0042
    115  CD2       62.8640   17.5100   27.4440 C.ar  171  PHE171     -0.0042
    116  CE1       61.4500   18.3260   29.6980 C.ar  171  PHE171     -0.0003
    117  CE2       63.0020   16.8080   28.6420 C.ar  171  PHE171     -0.0003
    118  CZ        62.2980   17.2140   29.7690 C.ar  171  PHE171     -0.0000
    119  N         67.2720   14.0090   18.7760 N.3   238  ASN238     -0.1240
    120  CA        68.3160   14.4710   19.6810 C.3   238  ASN238      0.1653
    121  C         69.4300   15.1930   18.9440 C.2   238  ASN238      0.2266
    122  O         70.3630   15.7060   19.5540 O.2   238  ASN238     -0.2867
    123  CB        68.8790   13.3010   20.4850 C.3   238  ASN238      0.1155
    124  CG        67.8310   12.6540   21.3540 C.2   238  ASN238      0.2627
    125  OD1       67.7650   11.3310   21.3280 O.2   238  ASN238     -0.2716
    126  ND2       67.0850   13.3420   22.0440 N.am  238  ASN238     -0.0877
    127  N         68.4450    0.9060   28.0320 N.3   443  HIS443     -0.1241
    128  CA        67.7510    2.1390   27.7000 C.3   443  HIS443      0.1621
    129  C         67.2770    1.9760   26.2620 C.2   443  HIS443      0.2264
    130  O         67.7030    1.0490   25.5750 O.2   443  HIS443     -0.2867
    131  CB        68.7460    3.3000   27.8480 C.3   443  HIS443      0.0745
    132  CG        68.6410    4.3520   26.7900 C.ar  443  HIS443      0.0817
    133  ND1       68.1870    5.6270   27.0500 N.ar  443  HIS443     -0.2268
    134  CD2       68.9760    4.3330   25.4770 C.ar  443  HIS443      0.1154
    135  CE1       68.2470    6.3490   25.9460 C.ar  443  HIS443      0.1986
    136  NE2       68.7230    5.5880   24.9770 N.ar  443  HIS443     -0.2212
@<TRIPOS>BOND
     1   119   120    1
     2   121   122    2
     3   121   120    1
     4     4     3    2
     5   120   123    1
     6     3     2    1
     7    23    22   ar
     8    23    21   ar
     9   100    98    1
    10   123   124    1
    11    99    98    1
    12    22    20   ar
    13    21    19   ar
    14   125   124    2
    15   124   126   am
    16    98    95    1
    17     2     1    1
    18     2     5    1
    19    20    19   ar
    20     5     6    1
    21    19    18    1
    22   104   103    2
    23    95    94    1
    24    95    96    1
    25    94    88   am
    26     7    13    1
    27     7     8    1
    28    86    87    1
    29    88    89    2
    30    88    87    1
    31    87    90    1
    32    96   101   am
    33    96    97    2
    34    13    12    1
    35   103   102    1
    36    18    15    1
    37   101   102    1
    38   111   110    2
    39     8     9    1
    40     8    11    1
    41   110   109    1
    42     9    14   am
    43     9    10    2
    44    14    15    1
    45   102   105    1
    46    82    84   ar
    47    82    80   ar
    48    15    16    1
    49    84    85   ar
    50   136   134   ar
    51   136   135   ar
    52    90    91    1
    53    11    12    1
    54    91    92    2
    55    91    93   am
    56   105   106    1
    57   105   107    1
    58   134   132   ar
    59   109   112    1
    60   109   108    1
    61   130   129    2
    62    79    80    1
    63    79    76    1
    64    77    76    1
    65    77    78    2
    66    80    81   ar
    67    76    75    1
    68   135   133   ar
    69   112   113    1
    70    85    83   ar
    71    16    17    2
    72    16    24   am
    73   129   128    1
    74    67    66    2
    75   132   133   ar
    76   132   131    1
    77    81    83   ar
    78    24    25    1
    79    75    66   am
    80   113   115   ar
    81   113   114   ar
    82    66    65    1
    83   115   117   ar
    84   128   131    1
    85   128   127    1
    86    74    72    1
    87    54    53    1
    88   114   116   ar
    89    25    26    1
    90    25    28    1
    91    27    26    2
    92   117   118   ar
    93    51    53   ar
    94    51    49   ar
    95    53    52   ar
    96    65    68    1
    97    65    64    1
    98    49    48   ar
    99    72    73    1
   100    72    71    2
   101    29    28    1
   102    29    31    1
   103    29    30    1
   104    68    69    1
   105    52    50   ar
   106   116   118   ar
   107    71    70    1
   108    48    50   ar
   109    48    47    1
   110    47    44    1
   111    69    70    1
   112    63    61   am
   113    62    61    2
   114    44    45    1
   115    44    43    1
   116    61    60    1
   117    45    46    2
   118    35    34    2
   119    55    56    1
   120    40    38   ar
   121    40    42   ar
   122    38    37   ar
   123    60    59    1
   124    42    41   ar
   125    37    36    1
   126    37    39   ar
   127    41    39   ar
   128    36    33    1
   129    34    33    1
   130    56    59    1
   131    56    57    1
   132    33    32    1
   133    57    58    2
