@<TRIPOS>MOLECULE
tmp/1jw6A00.pdb
 125 126 0 0 0
SMALL
GASTEIGER

@<TRIPOS>ATOM
      1  N         13.9400   20.0890   21.8110 N.3    11  THR11      -0.1203
      2  CA        13.5200   20.0850   23.2060 C.3    11  THR11       0.1994
      3  C         14.1890   21.1530   24.0730 C.2    11  THR11       0.2618
      4  O         13.6970   21.4720   25.1530 O.2    11  THR11      -0.2717
      5  CB        13.7650   18.7080   23.8470 C.3    11  THR11       0.1784
      6  OG1       15.1540   18.3770   23.7580 O.3    11  THR11      -0.2211
      7  CG2       12.9640   17.6430   23.1320 C.3    11  THR11       0.0376
      8  N         15.3130   21.6920   23.6140 N.am   12  TYR12      -0.1962
      9  CA        16.0230   22.7030   24.3890 C.3    12  TYR12       0.1756
     10  C         16.1530   24.0400   23.6730 C.2    12  TYR12       0.2461
     11  O         16.6630   24.1170   22.5410 O.2    12  TYR12      -0.2730
     12  CB        17.4040   22.1940   24.8040 C.3    12  TYR12       0.0574
     13  CG        18.0320   23.0110   25.9100 C.ar   12  TYR12      -0.0198
     14  CD1       17.8610   22.6560   27.2520 C.ar   12  TYR12      -0.0009
     15  CD2       18.7620   24.1630   25.6210 C.ar   12  TYR12      -0.0009
     16  CE1       18.3990   23.4360   28.2810 C.ar   12  TYR12       0.0417
     17  CE2       19.3000   24.9490   26.6390 C.ar   12  TYR12       0.0417
     18  CZ        19.1150   24.5810   27.9660 C.ar   12  TYR12       0.1957
     19  OH        19.6500   25.3670   28.9690 O.3    12  TYR12      -0.2866
     20  N         15.6660   25.1140   24.3130 N.am   13  PRO13      -0.2727
     21  CA        15.6960   26.4850   23.7940 C.3    13  PRO13       0.1402
     22  C         17.0520   27.2000   23.8860 C.2    13  PRO13       0.2269
     23  O         17.4690   27.6500   24.9550 O.2    13  PRO13      -0.2865
     24  CB        14.6170   27.1830   24.6240 C.3    13  PRO13       0.0296
     25  CG        14.6950   26.4570   25.9340 C.3    13  PRO13       0.0237
     26  CD        14.8070   25.0280   25.5130 C.3    13  PRO13       0.0939
     27  N         18.1240   30.1680   22.7970 N.3    15  THR15      -0.1203
     28  CA        17.6870   31.4790   22.3380 C.3    15  THR15       0.1994
     29  C         18.7470   32.3030   21.6170 C.2    15  THR15       0.2617
     30  O         18.4200   33.1550   20.7950 O.2    15  THR15      -0.2717
     31  CB        17.1270   32.3000   23.5030 C.3    15  THR15       0.1784
     32  OG1       18.0470   32.2510   24.6020 O.3    15  THR15      -0.2211
     33  CG2       15.7850   31.7450   23.9380 C.3    15  THR15       0.0376
     34  N         20.0150   32.0420   21.9120 N.am   16  ASP16      -0.1973
     35  CA        21.1040   32.7710   21.2690 C.3    16  ASP16       0.1709
     36  C         21.3220   32.3960   19.8000 C.2    16  ASP16       0.2293
     37  O         21.9950   33.1280   19.0710 O.2    16  ASP16      -0.2864
     38  CB        22.4090   32.6470   22.0710 C.3    16  ASP16       0.1436
     39  CG        22.8460   31.2020   22.2920 C.2    16  ASP16       0.3671
     40  OD1       24.0680   30.9520   22.2510 O.co2  16  ASP16      -0.2456
     41  OD2       21.9880   30.3230   22.5350 O.co2  16  ASP16      -0.2456
     42  N         18.6220   31.6180   17.8040 N.3    18  GLY18      -0.1210
     43  CA        17.3200   31.7340   17.1750 C.3    18  GLY18       0.1956
     44  C         16.1660   30.9030   17.6970 C.2    18  GLY18       0.2612
     45  O         15.0380   31.0880   17.2510 O.2    18  GLY18      -0.2717
     46  N         16.4280   29.9740   18.6100 N.am   19  ASP19      -0.1960
     47  CA        15.3620   29.1390   19.1650 C.3    19  ASP19       0.1825
     48  C         14.3560   29.9500   19.9650 C.2    19  ASP19       0.2464
     49  O         14.7460   30.8320   20.7330 O.2    19  ASP19      -0.2730
     50  CB        15.9310   28.1010   20.1460 C.3    19  ASP19       0.1450
     51  CG        16.4740   26.8710   19.4720 C.2    19  ASP19       0.3671
     52  OD1       16.3690   26.7620   18.2390 O.co2  19  ASP19      -0.2456
     53  OD2       17.0000   25.9930   20.1890 O.co2  19  ASP19      -0.2456
     54  N         13.0500   29.6920   19.7750 N.am   20  PRO20      -0.2715
     55  CA        12.1000   30.4570   20.5780 C.3    20  PRO20       0.1536
     56  C         12.3340   29.9620   22.0160 C.2    20  PRO20       0.2599
     57  O         12.9700   28.9240   22.2220 O.2    20  PRO20      -0.2715
     58  CB        10.7490   30.0050   20.0250 C.3    20  PRO20       0.0310
     59  CG        11.0250   28.6410   19.4860 C.3    20  PRO20       0.0237
     60  CD        12.3430   28.8390   18.8070 C.3    20  PRO20       0.0939
     61  N         11.8100   30.6590   23.0110 N.am   21  SER21      -0.1936
     62  CA        12.0480   30.2500   24.3860 C.3    21  SER21       0.2055
     63  C         11.1110   29.1680   24.8980 C.2    21  SER21       0.2643
     64  O         10.3960   29.3740   25.8750 O.2    21  SER21      -0.2714
     65  CB        11.9860   31.4600   25.2920 C.3    21  SER21       0.2130
     66  OG        10.7170   32.0720   25.2020 O.3    21  SER21      -0.2179
     67  N         11.1140   28.0260   24.2210 N.am   22  TYR22      -0.1960
     68  CA        10.2860   26.8790   24.5820 C.3    22  TYR22       0.1756
     69  C         10.5530   25.7380   23.6110 C.2    22  TYR22       0.2461
     70  O         11.1100   25.9610   22.5310 O.2    22  TYR22      -0.2730
     71  CB         8.7850   27.2380   24.5770 C.3    22  TYR22       0.0574
     72  CG         8.3090   28.0530   23.3880 C.ar   22  TYR22      -0.0198
     73  CD1        8.2710   27.5080   22.1030 C.ar   22  TYR22      -0.0009
     74  CD2        7.9250   29.3820   23.5490 C.ar   22  TYR22      -0.0009
     75  CE1        7.8730   28.2680   21.0100 C.ar   22  TYR22       0.0417
     76  CE2        7.5230   30.1500   22.4620 C.ar   22  TYR22       0.0417
     77  CZ         7.5030   29.5930   21.1960 C.ar   22  TYR22       0.1957
     78  OH         7.1420   30.3670   20.1170 O.3    22  TYR22      -0.2866
     79  N         10.2860   24.4890   24.0330 N.am   23  PRO23      -0.2727
     80  CA        10.4970   23.3330   23.1560 C.3    23  PRO23       0.1402
     81  C          9.6620   23.6220   21.9110 C.2    23  PRO23       0.2269
     82  O          8.5750   24.2050   22.0040 O.2    23  PRO23      -0.2865
     83  CB         9.8920   22.1920   23.9640 C.3    23  PRO23       0.0296
     84  CG        10.2110   22.5910   25.3650 C.3    23  PRO23       0.0237
     85  CD         9.8760   24.0570   25.3820 C.3    23  PRO23       0.0939
     86  N          5.2120   26.1780   18.4800 N.3    39  LYS39      -0.1245
     87  CA         5.3480   25.8110   19.8810 C.3    39  LYS39       0.1561
     88  C          4.9910   24.3510   20.0270 C.2    39  LYS39       0.2260
     89  O          3.9860   23.8880   19.4830 O.2    39  LYS39      -0.2867
     90  CB         4.4280   26.6490   20.7610 C.3    39  LYS39       0.0271
     91  CG         4.5720   26.3290   22.2410 C.3    39  LYS39       0.0035
     92  CD         3.5070   27.0270   23.0570 C.3    39  LYS39       0.0206
     93  CE         3.6080   26.6460   24.5230 C.3    39  LYS39       0.1093
     94  NZ         2.4430   27.1650   25.3000 N.3    39  LYS39      -0.1314
     95  N          5.9730   19.5650   24.5700 N.3    42  MET42      -0.1245
     96  CA         6.6760   18.3010   24.7430 C.3    42  MET42       0.1570
     97  C          6.3440   17.6240   26.0740 C.2    42  MET42       0.2261
     98  O          6.2350   18.2900   27.1130 O.2    42  MET42      -0.2867
     99  CB         8.1840   18.5340   24.6130 C.3    42  MET42       0.0387
    100  CG         9.0410   17.2700   24.6480 C.3    42  MET42       0.0595
    101  SD         9.9910   17.1000   26.1710 S.3    42  MET42      -0.1393
    102  CE        10.7700   18.7140   26.2330 C.3    42  MET42       0.0692
    103  N         14.6370   18.4030   34.5030 N.3   204  SER204     -0.1202
    104  CA        13.5320   19.2710   34.1580 C.3   204  SER204      0.2020
    105  C         13.7950   19.9700   32.8210 C.2   204  SER204      0.2619
    106  O         12.8820   20.5510   32.2280 O.2   204  SER204     -0.2717
    107  CB        13.3260   20.3040   35.2650 C.3   204  SER204      0.2103
    108  OG        12.9140   19.6830   36.4690 O.3   204  SER204     -0.2182
    109  N         15.0470   19.9400   32.3690 N.am  205  HIS205     -0.1961
    110  CA        15.4400   20.5710   31.1060 C.3   205  HIS205      0.1772
    111  C         16.1580   19.5670   30.1980 C.2   205  HIS205      0.2462
    112  O         17.3830   19.4340   30.2460 O.2   205  HIS205     -0.2730
    113  CB        16.3650   21.7790   31.3520 C.3   205  HIS205      0.0785
    114  CG        15.7880   22.8240   32.2600 C.ar  205  HIS205      0.0821
    115  ND1       14.7960   23.6940   31.8630 N.ar  205  HIS205     -0.2267
    116  CD2       16.0580   23.1290   33.5520 C.ar  205  HIS205      0.1154
    117  CE1       14.4750   24.4870   32.8710 C.ar  205  HIS205      0.1986
    118  NE2       15.2270   24.1640   33.9070 N.ar  205  HIS205     -0.2212
    119  N         15.3950   18.7850   29.4220 N.am  206  PRO206     -0.2727
    120  CA        16.0230   17.8120   28.5270 C.3   206  PRO206      0.1402
    121  C         16.5880   18.5120   27.2870 C.2   206  PRO206      0.2269
    122  O         16.1570   19.6080   26.9360 O.2   206  PRO206     -0.2865
    123  CB        14.8630   16.8740   28.1850 C.3   206  PRO206      0.0296
    124  CG        13.6960   17.7790   28.2020 C.3   206  PRO206      0.0237
    125  CD        13.9320   18.6280   29.4260 C.3   206  PRO206      0.0939
@<TRIPOS>BOND
     1    43    44    1
     2    43    42    1
     3    45    44    2
     4    44    46   am
     5    52    51   ar
     6    86    87    1
     7    46    47    1
     8    60    59    1
     9    60    54    1
    10    37    36    2
    11    47    48    1
    12    47    50    1
    13    51    50    1
    14    51    53   ar
    15    89    88    2
    16    59    58    1
    17    54    48   am
    18    54    55    1
    19    36    35    1
    20    87    88    1
    21    87    90    1
    22    48    49    2
    23    58    55    1
    24    78    77    1
    25    55    56    1
    26    90    91    1
    27    30    29    2
    28    75    77   ar
    29    75    73   ar
    30    77    76   ar
    31    35    34    1
    32    35    38    1
    33    29    34   am
    34    29    28    1
    35     1     2    1
    36    81    82    2
    37    81    80    1
    38    56    57    2
    39    56    61   am
    40    38    39    1
    41    73    72   ar
    42    91    92    1
    43    40    39   ar
    44    39    41   ar
    45    28    27    1
    46    28    31    1
    47    76    74   ar
    48    70    69    2
    49    11    10    2
    50    61    62    1
    51    92    93    1
    52     7     5    1
    53    80    83    1
    54    80    79    1
    55     2     5    1
    56     2     3    1
    57    72    74   ar
    58    72    71    1
    59    31    33    1
    60    31    32    1
    61    69    79   am
    62    69    68    1
    63     8     3   am
    64     8     9    1
    65    10    20   am
    66    10     9    1
    67     6     5    1
    68    21    22    1
    69    21    20    1
    70    21    24    1
    71    22    23    2
    72    83    84    1
    73    79    85    1
    74     3     4    2
    75    67    68    1
    76    67    63   am
    77    20    26    1
    78    62    63    1
    79    62    65    1
    80     9    12    1
    81    93    94    1
    82    95    96    1
    83    71    68    1
    84    99   100    1
    85    99    96    1
    86    24    25    1
    87   100   101    1
    88    96    97    1
    89    12    13    1
    90    63    64    2
    91    66    65    1
    92    84    85    1
    93    26    25    1
    94    15    13   ar
    95    15    17   ar
    96    13    14   ar
    97    97    98    2
    98   101   102    1
    99    17    18   ar
   100   122   121    2
   101    14    16   ar
   102   121   120    1
   103    18    16   ar
   104    18    19    1
   105   123   124    1
   106   123   120    1
   107   124   125    1
   108   120   119    1
   109   119   125    1
   110   119   111   am
   111   111   112    2
   112   111   110    1
   113   110   113    1
   114   110   109    1
   115   113   114    1
   116   115   114   ar
   117   115   117   ar
   118   106   105    2
   119   114   116   ar
   120   109   105   am
   121   105   104    1
   122   117   118   ar
   123   116   118   ar
   124   104   103    1
   125   104   107    1
   126   107   108    1
