@<TRIPOS>MOLECULE
tmp/1jwaA00.pdb
 201 188 0 0 0
SMALL
GASTEIGER

@<TRIPOS>ATOM
      1  N         35.2970   20.1710   29.0410 N.3    36  VAL36      -0.1231
      2  CA        34.8140   19.3620   27.9500 C.3    36  VAL36       0.1692
      3  C         35.1630   19.9710   26.5930 C.2    36  VAL36       0.2592
      4  O         34.5560   20.9610   26.1580 O.2    36  VAL36      -0.2718
      5  CB        33.3340   19.2010   28.0450 C.3    36  VAL36       0.0266
      6  CG1       32.8370   18.0900   27.1160 C.3    36  VAL36       0.0020
      7  CG2       32.8920   18.9260   29.4940 C.3    36  VAL36       0.0020
      8  N         36.1500   19.3580   25.9290 N.am   37  GLY37      -0.1957
      9  CA        36.5870   19.8120   24.6070 C.3    37  GLY37       0.1869
     10  C         37.9730   20.4020   24.6410 C.2    37  GLY37       0.2309
     11  O         38.1530   21.5820   24.7930 O.2    37  GLY37      -0.2863
     12  N         39.9670   21.2460   22.4110 N.3    39  GLY39      -0.1210
     13  CA        40.3290   21.7590   21.1000 C.3    39  GLY39       0.1956
     14  C         40.8260   23.2060   21.2040 C.2    39  GLY39       0.2612
     15  O         41.5700   23.5450   22.0910 O.2    39  GLY39      -0.2717
     16  N         40.3950   24.0600   20.2980 N.am   40  GLY40      -0.1942
     17  CA        40.7700   25.4470   20.2720 C.3    40  GLY40       0.2014
     18  C         40.5930   26.1630   21.5740 C.2    40  GLY40       0.2638
     19  O         41.5500   26.6890   22.1620 O.2    40  GLY40      -0.2714
     20  N         39.3790   26.1600   22.0970 N.am   41  LEU41      -0.1977
     21  CA        39.1370   26.8080   23.4030 C.3    41  LEU41       0.1596
     22  C         39.5900   25.9540   24.5990 C.2    41  LEU41       0.2287
     23  O         40.2520   26.4100   25.4960 O.2    41  LEU41      -0.2864
     24  CB        37.6690   27.1400   23.5550 C.3    41  LEU41       0.0297
     25  CG        37.2450   28.4180   22.8560 C.3    41  LEU41       0.0022
     26  CD1       35.7560   28.4410   22.6130 C.3    41  LEU41       0.0001
     27  CD2       37.6430   29.6340   23.6970 C.3    41  LEU41       0.0001
     28  N         38.1420   15.9770   28.9230 N.3    60  LEU60      -0.1231
     29  CA        37.1680   15.1180   28.2270 C.3    60  LEU60       0.1693
     30  C         37.0200   15.4670   26.7580 C.2    60  LEU60       0.2592
     31  O         36.4340   16.4910   26.4010 O.2    60  LEU60      -0.2718
     32  CB        35.7990   15.1920   28.8890 C.3    60  LEU60       0.0284
     33  CG        34.7490   14.2560   28.3160 C.3    60  LEU60       0.0019
     34  CD1       35.2920   12.8020   28.2130 C.3    60  LEU60       0.0001
     35  CD2       33.4730   14.3350   29.1800 C.3    60  LEU60       0.0001
     36  N         37.5690   14.5790   25.9230 N.am   61  ASP61      -0.1960
     37  CA        37.5020   14.7350   24.4850 C.3    61  ASP61       0.1840
     38  C         37.7780   13.3810   23.8790 C.2    61  ASP61       0.2622
     39  O         38.5780   12.6260   24.4200 O.2    61  ASP61      -0.2715
     40  CB        38.5230   15.7710   24.0110 C.3    61  ASP61       0.1450
     41  CG        38.1940   16.3340   22.6480 C.2    61  ASP61       0.3671
     42  OD1       37.4710   15.6860   21.8790 O.co2  61  ASP61      -0.2456
     43  OD2       38.6230   17.4100   22.2280 O.co2  61  ASP61      -0.2456
     44  N         37.1380   13.0900   22.7430 N.am   62  PHE62      -0.1960
     45  CA        37.3270   11.8100   22.0420 C.3    62  PHE62       0.1771
     46  C         38.1770   11.9000   20.8180 C.2    62  PHE62       0.2619
     47  O         38.4960   10.8710   20.3070 O.2    62  PHE62      -0.2715
     48  CB        35.9950   11.2620   21.5560 C.3    62  PHE62       0.0574
     49  CG        35.3180   12.1510   20.5980 C.ar   62  PHE62      -0.0200
     50  CD1       35.7690   12.2760   19.3170 C.ar   62  PHE62      -0.0042
     51  CD2       34.2650   12.9120   21.0060 C.ar   62  PHE62      -0.0042
     52  CE1       35.1490   13.1110   18.4470 C.ar   62  PHE62      -0.0003
     53  CE2       33.6580   13.7420   20.1700 C.ar   62  PHE62      -0.0003
     54  CZ        34.0950   13.8490   18.8860 C.ar   62  PHE62      -0.0000
     55  N         38.5320   13.1080   20.3520 N.am   63  ASP63      -0.1971
     56  CA        39.3120   13.3090   19.1180 C.3    63  ASP63       0.1709
     57  C         40.8270   13.1840   19.2030 C.2    63  ASP63       0.2293
     58  O         41.3880   13.0000   20.2600 O.2    63  ASP63      -0.2864
     59  CB        38.9910   14.6730   18.5760 C.3    63  ASP63       0.1436
     60  CG        39.2390   14.7830   17.1320 C.2    63  ASP63       0.3671
     61  OD1       39.5460   13.7610   16.4920 O.co2  63  ASP63      -0.2456
     62  OD2       39.1480   15.8640   16.5540 O.co2  63  ASP63      -0.2456
     63  N         45.7760   16.9490   15.0950 N.3    66  SER66      -0.1217
     64  CA        46.0140   16.9970   13.6690 C.3    66  SER66       0.1889
     65  C         46.7480   18.2790   13.2650 C.2    66  SER66       0.2288
     66  O         46.8380   19.2370   14.0290 O.2    66  SER66      -0.2866
     67  CB        44.6970   16.8360   12.9150 C.3    66  SER66       0.2089
     68  OG        44.0030   18.0540   12.8360 O.3    66  SER66      -0.2183
     69  N         46.1790   20.8550   10.9360 N.3    68  SER68      -0.1202
     70  CA        45.3280   22.0120   10.9660 C.3    68  SER68       0.2020
     71  C         45.1650   22.5970   12.3720 C.2    68  SER68       0.2618
     72  O         45.1960   23.7850   12.5350 O.2    68  SER68      -0.2717
     73  CB        43.9630   21.6760   10.3740 C.3    68  SER68       0.2103
     74  OG        42.9340   22.1640   11.2280 O.3    68  SER68      -0.2182
     75  N         44.9990   21.7670   13.3830 N.am   69  ASN69      -0.1974
     76  CA        44.8340   22.2100   14.7600 C.3    69  ASN69       0.1688
     77  C         45.9850   23.0100   15.3330 C.2    69  ASN69       0.2292
     78  O         45.8030   23.7360   16.3060 O.2    69  ASN69      -0.2864
     79  CB        44.6610   20.9960   15.6620 C.3    69  ASN69       0.1181
     80  CG        43.5050   20.1580   15.2890 C.2    69  ASN69       0.2629
     81  OD1       43.4370   18.9750   15.6430 O.2    69  ASN69      -0.2716
     82  ND2       42.5600   20.7530   14.5740 N.am   69  ASN69      -0.0877
     83  N         46.3380   26.9750   16.0540 N.3    72  ARG72      -0.1231
     84  CA        45.7560   27.6440   17.1950 C.3    72  ARG72       0.1694
     85  C         45.8210   26.8800   18.5030 C.2    72  ARG72       0.2591
     86  O         45.8050   27.4920   19.5470 O.2    72  ARG72      -0.2718
     87  CB        44.3120   28.0470   16.8640 C.3    72  ARG72       0.0321
     88  CG        43.2800   26.9250   16.8580 C.3    72  ARG72       0.0489
     89  CD        42.1150   27.2390   15.9700 C.3    72  ARG72       0.2205
     90  NE        41.1020   26.2080   15.9700 N.pl3  72  ARG72      -0.0865
     91  CZ        41.1140   25.1250   15.2030 C.cat  72  ARG72       0.5346
     92  NH1       42.0920   24.9090   14.3400 N.pl3  72  ARG72       0.1354
     93  NH2       40.1520   24.2270   15.3200 N.pl3  72  ARG72       0.1354
     94  N         45.8920   25.5650   18.4750 N.am   73  GLN73      -0.1979
     95  CA        45.9210   24.8030   19.7230 C.3    73  GLN73       0.1601
     96  C         47.3410   24.6560   20.1930 C.2    73  GLN73       0.2287
     97  O         47.9860   23.7080   19.8830 O.2    73  GLN73      -0.2864
     98  CB        45.2350   23.4560   19.5150 C.3    73  GLN73       0.0394
     99  CG        43.7090   23.6270   19.2180 C.3    73  GLN73       0.0908
    100  CD        43.0660   22.4230   18.6190 C.2    73  GLN73       0.2608
    101  OE1       42.0750   22.5430   17.8710 O.2    73  GLN73      -0.2717
    102  NE2       43.6120   21.2440   18.9320 N.am   73  GLN73      -0.0878
    103  N         43.8150   13.8920   21.9600 N.3    85  LYS85      -0.1245
    104  CA        43.9460   15.2260   22.5150 C.3    85  LYS85       0.1561
    105  C         44.0280   15.3180   24.0140 C.2    85  LYS85       0.2260
    106  O         44.7270   16.1890   24.5430 O.2    85  LYS85      -0.2867
    107  CB        42.7870   16.0960   22.0030 C.3    85  LYS85       0.0271
    108  CG        42.8830   16.4060   20.5450 C.3    85  LYS85       0.0035
    109  CD        42.0420   17.5880   20.2040 C.3    85  LYS85       0.0206
    110  CE        41.0870   17.2930   19.0600 C.3    85  LYS85       0.1093
    111  NZ        40.6300   18.4300   18.3730 N.3    85  LYS85      -0.1314
    112  N         37.0920    9.7570   25.3850 N.3   107  ALA107     -0.1231
    113  CA        35.8200    9.1150   25.1040 C.3   107  ALA107      0.1694
    114  C         34.7260   10.0230   24.6060 C.2   107  ALA107      0.2592
    115  O         34.9210   11.2060   24.4100 O.2   107  ALA107     -0.2718
    116  CB        35.3190    8.3860   26.3630 C.3   107  ALA107      0.0304
    117  N         33.5550    9.4320   24.4030 N.am  108  LEU108     -0.1966
    118  CA        32.3530   10.1670   24.0280 C.3   108  LEU108      0.1728
    119  C         31.1850    9.7010   24.9250 C.2   108  LEU108      0.2616
    120  O         30.4430    8.8490   24.5410 O.2   108  LEU108     -0.2715
    121  CB        32.0390    9.9410   22.5630 C.3   108  LEU108      0.0311
    122  CG        30.8300   10.7240   22.0530 C.3   108  LEU108      0.0022
    123  CD1       30.9620   12.2170   22.3620 C.3   108  LEU108      0.0001
    124  CD2       30.7110   10.5340   20.6020 C.3   108  LEU108      0.0001
    125  N         31.0850   10.2180   26.1440 N.am  109  LEU109     -0.1977
    126  CA        30.0980    9.7250   27.1060 C.3   109  LEU109      0.1596
    127  C         28.7290   10.0890   26.6460 C.2   109  LEU109      0.2287
    128  O         28.5960   10.9940   25.8490 O.2   109  LEU109     -0.2864
    129  CB        30.3260   10.3260   28.4980 C.3   109  LEU109      0.0297
    130  CG        31.8060   10.4700   28.7550 C.3   109  LEU109      0.0022
    131  CD1       32.1380   11.1400   30.0370 C.3   109  LEU109      0.0001
    132  CD2       32.4810    9.1630   28.6920 C.3   109  LEU109      0.0001
    133  N         33.6330   23.6560   26.2550 N.3   127  CYS127     -0.1221
    134  CA        34.6030   24.0240   25.2450 C.3   127  CYS127      0.1808
    135  C         34.4060   23.2240   23.9800 C.2   127  CYS127      0.2602
    136  O         35.3450   23.0030   23.2640 O.2   127  CYS127     -0.2717
    137  CB        36.0030   23.8740   25.8220 C.3   127  CYS127      0.0970
    138  SG        36.3710   25.2070   27.0080 S.3   127  CYS127     -0.0800
    139  N         33.1540   22.8490   23.7110 N.am  128  THR128     -0.1939
    140  CA        32.7640   22.0450   22.5410 C.3   128  THR128      0.2028
    141  C         32.3430   22.8490   21.3130 C.2   128  THR128      0.2642
    142  O         32.3500   24.0490   21.3380 O.2   128  THR128     -0.2714
    143  CB        31.5920   21.1230   22.9270 C.3   128  THR128      0.1808
    144  OG1       30.5260   21.8980   23.4930 O.3   128  THR128     -0.2208
    145  CG2       32.0260   20.1820   24.0160 C.3   128  THR128      0.0379
    146  N         31.9390   22.1640   20.2450 N.am  129  ASP129     -0.1957
    147  CA        31.5670   22.8280   18.9910 C.3   129  ASP129      0.1840
    148  C         30.2020   22.4670   18.4160 C.2   129  ASP129      0.2622
    149  O         29.9070   22.7890   17.2590 O.2   129  ASP129     -0.2715
    150  CB        32.5870   22.5320   17.9130 C.3   129  ASP129      0.1450
    151  CG        32.9030   21.0800   17.7930 C.2   129  ASP129      0.3671
    152  OD1       32.2540   20.3030   18.5000 O.co2 129  ASP129     -0.2456
    153  OD2       33.7960   20.6290   17.0360 O.co2 129  ASP129     -0.2456
    154  N         29.3650   21.7940   19.2050 N.am  130  ASN130     -0.1972
    155  CA        28.0370   21.4330   18.7400 C.3   130  ASN130      0.1688
    156  C         26.9600   21.3870   19.8280 C.2   130  ASN130      0.2292
    157  O         27.1290   20.8340   20.8960 O.2   130  ASN130     -0.2864
    158  CB        28.0900   20.1070   17.9960 C.3   130  ASN130      0.1181
    159  CG        28.4990   18.9390   18.8870 C.2   130  ASN130      0.2629
    160  OD1       29.6810   18.6660   19.1120 O.2   130  ASN130     -0.2716
    161  ND2       27.5160   18.2380   19.3820 N.am  130  ASN130     -0.0877
    162  N         26.1120   18.3380   22.2940 N.3   133  VAL133     -0.1245
    163  CA        26.8490   18.2510   23.5420 C.3   133  VAL133      0.1561
    164  C         26.5240   19.4150   24.4460 C.2   133  VAL133      0.2260
    165  O         26.2400   19.2510   25.6290 O.2   133  VAL133     -0.2867
    166  CB        28.3330   18.2710   23.3100 C.3   133  VAL133      0.0252
    167  CG1       29.0350   17.7620   24.5120 C.3   133  VAL133      0.0019
    168  CG2       28.6950   17.4260   22.1240 C.3   133  VAL133      0.0019
    169  N         23.4650   18.5890   26.3880 N.3   136  GLN136     -0.1245
    170  CA        23.6140   17.5930   27.4390 C.3   136  GLN136      0.1566
    171  C         24.2010   18.2830   28.6650 C.2   136  GLN136      0.2260
    172  O         23.7390   18.1300   29.7950 O.2   136  GLN136     -0.2867
    173  CB        24.6050   16.5280   27.0050 C.3   136  GLN136      0.0367
    174  CG        24.1340   15.6270   25.9080 C.3   136  GLN136      0.0905
    175  CD        25.2300   14.7410   25.4100 C.2   136  GLN136      0.2608
    176  OE1       26.2950   15.2130   25.0430 O.2   136  GLN136     -0.2717
    177  NE2       24.9930   13.4440   25.4210 N.am  136  GLN136     -0.0878
    178  N         34.3230   24.3350    5.8430 N.3   166  GLU166     -0.1245
    179  CA        33.9360   24.8560    7.1620 C.3   166  GLU166      0.1567
    180  C         34.0330   26.3940    7.2040 C.2   166  GLU166      0.2260
    181  O         34.0760   27.0410    6.1510 O.2   166  GLU166     -0.2867
    182  CB        34.8200   24.2290    8.2420 C.3   166  GLU166      0.0388
    183  CG        36.2650   24.2940    7.8850 C.3   166  GLU166      0.1160
    184  CD        37.0880   23.4530    8.8040 C.2   166  GLU166      0.3649
    185  OE1       36.5030   22.9600    9.8100 O.co2 166  GLU166     -0.2457
    186  OE2       38.3170   23.3170    8.5500 O.co2 166  GLU166     -0.2457
    187  N         38.8210   30.4440   11.2710 N.3   169  VAL169     -0.1245
    188  CA        38.9310   30.9990   12.6240 C.3   169  VAL169      0.1561
    189  C         40.3570   31.5540   12.8880 C.2   169  VAL169      0.2260
    190  O         41.3350   30.7900   12.8580 O.2   169  VAL169     -0.2867
    191  CB        38.5150   29.9600   13.6790 C.3   169  VAL169      0.0252
    192  CG1       39.2810   28.7040   13.4840 C.3   169  VAL169      0.0019
    193  CG2       38.6780   30.4650   15.0890 C.3   169  VAL169      0.0019
    194  N         40.4530   32.5320   19.7470 N.3   174  ILE174     -0.1245
    195  CA        40.1900   31.4280   20.6320 C.3   174  ILE174      0.1561
    196  C         40.8760   31.7630   21.9450 C.2   174  ILE174      0.2260
    197  O         40.4630   31.2670   22.9700 O.2   174  ILE174     -0.2867
    198  CB        40.7620   30.1410   19.9510 C.3   174  ILE174      0.0252
    199  CG1       39.7130   29.1020   19.8910 C.3   174  ILE174      0.0019
    200  CG2       42.0390   29.6410   20.5760 C.3   174  ILE174      0.0019
    201  CD1       39.1060   29.0140   18.5210 C.3   174  ILE174      0.0001
@<TRIPOS>BOND
     1   178   179    1
     2   181   180    2
     3   179   180    1
     4   179   182    1
     5   183   182    1
     6   183   184    1
     7   186   184   ar
     8   184   185   ar
     9    73    70    1
    10    73    74    1
    11    69    70    1
    12    70    71    1
    13   187   188    1
    14    71    72    2
    15    71    75   am
    16   188   189    1
    17   188   191    1
    18    68    67    1
    19   190   189    2
    20    67    64    1
    21    65    64    1
    22    65    66    2
    23    75    76    1
    24   192   191    1
    25    64    63    1
    26   191   193    1
    27    92    91    1
    28    82    80   am
    29    76    77    1
    30    76    79    1
    31    91    93    1
    32    91    90    2
    33    80    81    2
    34    80    79    1
    35    77    78    2
    36    89    90    1
    37    89    88    1
    38    83    84    1
    39    61    60   ar
    40    62    60   ar
    41    88    87    1
    42    87    84    1
    43   153   151   ar
    44    60    59    1
    45    84    85    1
    46   149   148    2
    47   151   150    1
    48   151   152   ar
    49   101   100    2
    50   150   147    1
    51   158   155    1
    52   158   159    1
    53   111   110    1
    54   148   147    1
    55   148   154   am
    56    52    54   ar
    57    52    50   ar
    58    94    85   am
    59    94    95    1
    60    85    86    2
    61   201   199    1
    62    59    56    1
    63   100   102   am
    64   100    99    1
    65   155   154    1
    66   155   156    1
    67    54    53   ar
    68   159   160    2
    69   159   161   am
    70   147   146    1
    71   110   109    1
    72    56    57    1
    73    56    55    1
    74    57    58    2
    75    99    98    1
    76    50    49   ar
    77    98    95    1
    78    95    96    1
    79   194   195    1
    80   156   157    2
    81    97    96    2
    82   199   198    1
    83   198   200    1
    84   198   195    1
    85    53    51   ar
    86   109   108    1
    87   146   141   am
    88    17    16    1
    89    17    18    1
    90    16    14   am
    91    47    46    2
    92    55    46   am
    93   108   107    1
    94    49    51   ar
    95    49    48    1
    96   124   122    1
    97   195   196    1
    98    46    45    1
    99    13    14    1
   100    13    12    1
   101    14    15    2
   102   141   142    2
   103   141   140    1
   104    48    45    1
   105    18    20   am
   106    18    19    2
   107    42    41   ar
   108   196   197    2
   109   103   104    1
   110   107   104    1
   111    45    44    1
   112   122   123    1
   113   122   121    1
   114    20    21    1
   115   168   166    1
   116    43    41   ar
   117   162   163    1
   118   104   105    1
   119   140   143    1
   120   140   139    1
   121   121   118    1
   122    26    25    1
   123    41    40    1
   124    44    38   am
   125    25    24    1
   126    25    27    1
   127   143   144    1
   128   143   145    1
   129   136   135    2
   130   166   163    1
   131   166   167    1
   132    21    24    1
   133    21    22    1
   134   163   164    1
   135   139   135   am
   136    38    39    2
   137    38    37    1
   138   135   134    1
   139    40    37    1
   140   105   106    2
   141   118   117    1
   142   118   119    1
   143   117   114   am
   144   115   114    2
   145   164   165    2
   146    37    36    1
   147   120   119    2
   148    22    23    2
   149   114   113    1
   150     9    10    1
   151     9     8    1
   152    10    11    2
   153   119   125   am
   154   176   175    2
   155   113   112    1
   156   113   116    1
   157   134   137    1
   158   134   133    1
   159   175   177   am
   160   175   174    1
   161   137   138    1
   162   128   127    2
   163   174   173    1
   164    36    30   am
   165     8     3   am
   166   125   126    1
   167     4     3    2
   168   169   170    1
   169    31    30    2
   170     3     2    1
   171   127   126    1
   172    30    29    1
   173   173   170    1
   174   126   129    1
   175     6     5    1
   176   170   171    1
   177     2     5    1
   178     2     1    1
   179     5     7    1
   180    34    33    1
   181    29    32    1
   182    29    28    1
   183    33    32    1
   184    33    35    1
   185   129   130    1
   186   171   172    2
   187   132   130    1
   188   130   131    1
