@<TRIPOS>MOLECULE
tmp/1jwbA00.pdb
 170 160 0 0 0
SMALL
GASTEIGER

@<TRIPOS>ATOM
      1  N         34.6500   19.8230   28.1390 N.3    36  VAL36      -0.1231
      2  CA        34.1460   19.0340   27.0120 C.3    36  VAL36       0.1692
      3  C         34.5370   19.7030   25.6920 C.2    36  VAL36       0.2592
      4  O         34.0750   20.7770   25.3840 O.2    36  VAL36      -0.2718
      5  CB        32.6100   18.8740   27.0710 C.3    36  VAL36       0.0266
      6  CG1       32.1620   17.8510   26.0470 C.3    36  VAL36       0.0020
      7  CG2       32.1800   18.4230   28.4530 C.3    36  VAL36       0.0020
      8  N         35.4180   19.0240   24.9410 N.am   37  GLY37      -0.1957
      9  CA        36.0140   19.5510   23.7220 C.3    37  GLY37       0.1869
     10  C         37.4320   20.1050   23.9610 C.2    37  GLY37       0.2309
     11  O         37.6330   21.1470   24.5970 O.2    37  GLY37      -0.2863
     12  N         39.4640   20.9350   21.6190 N.3    39  GLY39      -0.1210
     13  CA        39.7840   21.5050   20.3380 C.3    39  GLY39       0.1956
     14  C         40.2860   22.9030   20.6220 C.2    39  GLY39       0.2612
     15  O         40.9530   23.1590   21.6090 O.2    39  GLY39      -0.2717
     16  N         39.8750   23.8380   19.8050 N.am   40  GLY40      -0.1942
     17  CA        40.3010   25.2150   19.9370 C.3    40  GLY40       0.2014
     18  C         39.9180   25.8460   21.2470 C.2    40  GLY40       0.2638
     19  O         40.7840   26.3690   21.9950 O.2    40  GLY40      -0.2714
     20  N         38.6300   25.8300   21.5510 N.am   41  LEU41      -0.1977
     21  CA        38.2160   26.4050   22.8350 C.3    41  LEU41       0.1596
     22  C         38.8480   25.6790   24.0200 C.2    41  LEU41       0.2287
     23  O         39.3240   26.3020   24.9900 O.2    41  LEU41      -0.2864
     24  CB        36.6910   26.4260   22.9870 C.3    41  LEU41       0.0297
     25  CG        36.0470   27.4680   22.0700 C.3    41  LEU41       0.0022
     26  CD1       34.5230   27.4020   22.1620 C.3    41  LEU41       0.0001
     27  CD2       36.5390   28.8760   22.3650 C.3    41  LEU41       0.0001
     28  N         37.4290   15.7120   28.0720 N.3    60  LEU60      -0.1231
     29  CA        36.5590   14.8200   27.3620 C.3    60  LEU60       0.1693
     30  C         36.4440   15.2250   25.9160 C.2    60  LEU60       0.2592
     31  O         35.9730   16.3300   25.5920 O.2    60  LEU60      -0.2718
     32  CB        35.1660   14.8280   28.0110 C.3    60  LEU60       0.0284
     33  CG        34.1170   14.0140   27.2690 C.3    60  LEU60       0.0019
     34  CD1       34.5020   12.5450   27.2740 C.3    60  LEU60       0.0001
     35  CD2       32.7410   14.1940   27.9240 C.3    60  LEU60       0.0001
     36  N         36.8180   14.3060   25.0530 N.am   61  ASP61      -0.1960
     37  CA        36.7660   14.4950   23.6230 C.3    61  ASP61       0.1840
     38  C         36.9220   13.0910   23.0270 C.2    61  ASP61       0.2622
     39  O         37.5990   12.2150   23.6210 O.2    61  ASP61      -0.2715
     40  CB        37.8690   15.4160   23.1330 C.3    61  ASP61       0.1450
     41  CG        37.5330   16.1000   21.8220 C.2    61  ASP61       0.3671
     42  OD1       37.0090   15.4180   20.9100 O.co2  61  ASP61      -0.2456
     43  OD2       37.8020   17.3150   21.5990 O.co2  61  ASP61      -0.2456
     44  N         36.3120   12.8870   21.8660 N.am   62  PHE62      -0.1960
     45  CA        36.3400   11.5770   21.2190 C.3    62  PHE62       0.1771
     46  C         37.2910   11.6080   20.0450 C.2    62  PHE62       0.2619
     47  O         37.6070   10.5830   19.4520 O.2    62  PHE62      -0.2715
     48  CB        34.9560   11.2370   20.6650 C.3    62  PHE62       0.0574
     49  CG        34.5500   12.1250   19.5790 C.ar   62  PHE62      -0.0200
     50  CD1       34.9580   11.8860   18.2950 C.ar   62  PHE62      -0.0042
     51  CD2       33.8080   13.2580   19.8470 C.ar   62  PHE62      -0.0042
     52  CE1       34.6000   12.7210   17.2900 C.ar   62  PHE62      -0.0003
     53  CE2       33.4720   14.1100   18.8650 C.ar   62  PHE62      -0.0003
     54  CZ        33.8760   13.8480   17.5740 C.ar   62  PHE62      -0.0000
     55  N         37.7790   12.7900   19.7270 N.am   63  ASP63      -0.1971
     56  CA        38.4850   12.9720   18.4810 C.3    63  ASP63       0.1709
     57  C         40.0050   13.0120   18.6110 C.2    63  ASP63       0.2293
     58  O         40.5840   13.2120   19.7070 O.2    63  ASP63      -0.2864
     59  CB        37.8910   14.2400   17.8510 C.3    63  ASP63       0.1436
     60  CG        38.3020   14.4750   16.3990 C.2    63  ASP63       0.3671
     61  OD1       38.5630   13.5020   15.6760 O.co2  63  ASP63      -0.2456
     62  OD2       38.3360   15.6400   15.9190 O.co2  63  ASP63      -0.2456
     63  N         45.1500   26.3630   15.4120 N.3    72  ARG72      -0.1231
     64  CA        44.6410   27.0180   16.6160 C.3    72  ARG72       0.1694
     65  C         44.6620   26.2310   17.9380 C.2    72  ARG72       0.2591
     66  O         44.6240   26.8330   18.9950 O.2    72  ARG72      -0.2718
     67  CB        43.2020   27.5130   16.3870 C.3    72  ARG72       0.0321
     68  CG        42.2150   26.3900   16.2250 C.3    72  ARG72       0.0489
     69  CD        40.9170   26.8000   15.6990 C.3    72  ARG72       0.2205
     70  NE        40.0060   25.6690   15.6500 N.pl3  72  ARG72      -0.0865
     71  CZ        39.9890   24.7610   14.7230 C.cat  72  ARG72       0.5346
     72  NH1       40.8330   24.7960   13.7130 N.pl3  72  ARG72       0.1354
     73  NH2       39.1320   23.7810   14.8240 N.pl3  72  ARG72       0.1354
     74  N         44.7690   24.9220   17.9030 N.am   73  GLN73      -0.1979
     75  CA        44.7350   24.1440   19.1160 C.3    73  GLN73       0.1601
     76  C         46.1360   23.9400   19.6270 C.2    73  GLN73       0.2287
     77  O         46.7400   22.8690   19.4460 O.2    73  GLN73      -0.2864
     78  CB        44.0450   22.8410   18.7660 C.3    73  GLN73       0.0394
     79  CG        42.6890   23.0950   18.1110 C.3    73  GLN73       0.0908
     80  CD        41.9810   21.8730   17.6390 C.2    73  GLN73       0.2608
     81  OE1       40.9890   21.9830   16.9360 O.2    73  GLN73      -0.2717
     82  NE2       42.4630   20.7140   18.0110 N.am   73  GLN73      -0.0878
     83  N         42.8220   13.7950   21.1330 N.3    85  LYS85      -0.1245
     84  CA        43.0420   15.1410   21.6570 C.3    85  LYS85       0.1561
     85  C         43.2130   15.2070   23.1820 C.2    85  LYS85       0.2260
     86  O         44.0190   16.0050   23.7060 O.2    85  LYS85      -0.2867
     87  CB        41.8880   16.0460   21.2320 C.3    85  LYS85       0.0271
     88  CG        41.8980   16.3320   19.7520 C.3    85  LYS85       0.0035
     89  CD        40.6970   17.1800   19.3720 C.3    85  LYS85       0.0206
     90  CE        40.7620   17.6030   17.9250 C.3    85  LYS85       0.1093
     91  NZ        39.4610   18.0130   17.4060 N.3    85  LYS85      -0.1314
     92  N         36.3100    9.6010   24.6310 N.3   107  ALA107     -0.1231
     93  CA        35.1110    8.8660   24.3420 C.3   107  ALA107      0.1694
     94  C         34.0890    9.8260   23.8880 C.2   107  ALA107      0.2592
     95  O         34.2530   11.0150   24.0510 O.2   107  ALA107     -0.2718
     96  CB        34.6230    8.1520   25.5960 C.3   107  ALA107      0.0304
     97  N         33.0310    9.2840   23.3120 N.am  108  LEU108     -0.1966
     98  CA        31.8600   10.0330   23.0020 C.3   108  LEU108      0.1728
     99  C         30.8360    9.4830   23.9610 C.2   108  LEU108      0.2616
    100  O         30.3880    8.3520   23.8120 O.2   108  LEU108     -0.2715
    101  CB        31.4680    9.7880   21.5650 C.3   108  LEU108      0.0311
    102  CG        30.1740   10.4560   21.2030 C.3   108  LEU108      0.0022
    103  CD1       30.3120   11.9040   21.1660 C.3   108  LEU108      0.0001
    104  CD2       29.7810    9.9560   19.8450 C.3   108  LEU108      0.0001
    105  N         30.4210   10.2840   24.9360 N.am  109  LEU109     -0.1977
    106  CA        29.5520    9.7460   25.9630 C.3   109  LEU109      0.1596
    107  C         28.0900    9.8580   25.6280 C.2   109  LEU109      0.2287
    108  O         27.6510   10.7430   24.8720 O.2   109  LEU109     -0.2864
    109  CB        29.7980   10.4660   27.2850 C.3   109  LEU109      0.0297
    110  CG        31.2550   10.3860   27.7600 C.3   109  LEU109      0.0022
    111  CD1       31.4310   11.0360   29.0850 C.3   109  LEU109      0.0001
    112  CD2       31.7230    8.9800   27.8980 C.3   109  LEU109      0.0001
    113  N         33.1330   23.2840   25.4580 N.3   127  CYS127     -0.1221
    114  CA        34.0190   23.7590   24.4250 C.3   127  CYS127      0.1808
    115  C         33.8510   22.8970   23.1900 C.2   127  CYS127      0.2602
    116  O         34.7870   22.6320   22.5160 O.2   127  CYS127     -0.2717
    117  CB        35.4650   23.6760   24.8830 C.3   127  CYS127      0.0970
    118  SG        35.8800   24.5890   26.3930 S.3   127  CYS127     -0.0800
    119  N         32.6220   22.5550   22.8820 N.am  128  THR128     -0.1939
    120  CA        32.3020   21.7000   21.7800 C.3   128  THR128      0.2028
    121  C         31.9990   22.4940   20.5130 C.2   128  THR128      0.2642
    122  O         32.1870   23.7070   20.4870 O.2   128  THR128     -0.2714
    123  CB        31.0840   20.8540   22.1790 C.3   128  THR128      0.1808
    124  OG1       29.9850   21.7260   22.4130 O.3   128  THR128     -0.2208
    125  CG2       31.3170   20.2440   23.5010 C.3   128  THR128      0.0379
    126  N         31.5180   21.8160   19.4830 N.am  129  ASP129     -0.1957
    127  CA        31.3090   22.4780   18.2190 C.3   129  ASP129      0.1840
    128  C         30.0320   22.1000   17.5660 C.2   129  ASP129      0.2622
    129  O         29.9180   22.1120   16.4060 O.2   129  ASP129     -0.2715
    130  CB        32.4710   22.1280   17.2760 C.3   129  ASP129      0.1450
    131  CG        32.6730   20.6190   17.1200 C.2   129  ASP129      0.3671
    132  OD1       31.8120   19.8440   17.6090 O.co2 129  ASP129     -0.2456
    133  OD2       33.6940   20.1240   16.5750 O.co2 129  ASP129     -0.2456
    134  N         29.0480   21.7230   18.3360 N.am  130  ASN130     -0.1972
    135  CA        27.7680   21.3080   17.7800 C.3   130  ASN130      0.1688
    136  C         26.6770   21.4210   18.8440 C.2   130  ASN130      0.2292
    137  O         26.8820   21.1650   20.0250 O.2   130  ASN130     -0.2864
    138  CB        27.8330   19.8950   17.1540 C.3   130  ASN130      0.1181
    139  CG        28.0770   18.7990   18.1640 C.2   130  ASN130      0.2629
    140  OD1       27.1340   18.2630   18.7600 O.2   130  ASN130     -0.2716
    141  ND2       29.3510   18.4210   18.3400 N.am  130  ASN130     -0.0877
    142  N         25.6250   18.2680   21.3470 N.3   133  VAL133     -0.1245
    143  CA        26.2850   17.9900   22.6140 C.3   133  VAL133      0.1561
    144  C         26.0760   19.1910   23.5410 C.2   133  VAL133      0.2260
    145  O         25.9150   19.0390   24.7280 O.2   133  VAL133     -0.2867
    146  CB        27.7820   17.5610   22.4670 C.3   133  VAL133      0.0252
    147  CG1       28.5780   18.6590   21.9330 C.3   133  VAL133      0.0019
    148  CG2       28.3660   17.1550   23.7800 C.3   133  VAL133      0.0019
    149  N         22.9430   18.5400   25.2240 N.3   136  GLN136     -0.1245
    150  CA        23.1410   17.4560   26.1630 C.3   136  GLN136      0.1566
    151  C         23.8140   17.9720   27.4200 C.2   136  GLN136      0.2260
    152  O         23.4670   17.6060   28.5460 O.2   136  GLN136     -0.2867
    153  CB        24.1130   16.3960   25.6020 C.3   136  GLN136      0.0367
    154  CG        23.4820   15.1850   25.0170 C.3   136  GLN136      0.0905
    155  CD        24.5500   14.2000   24.5930 C.2   136  GLN136      0.2608
    156  OE1       25.5840   14.6020   24.0450 O.2   136  GLN136     -0.2717
    157  NE2       24.3310   12.9260   24.8730 N.am  136  GLN136     -0.0878
    158  N         32.7350   29.6730   19.1410 N.3   153  ALA153     -0.1245
    159  CA        33.5260   30.4840   18.2310 C.3   153  ALA153      0.1562
    160  C         33.4740   29.8750   16.8850 C.2   153  ALA153      0.2260
    161  O         33.5520   28.6630   16.7410 O.2   153  ALA153     -0.2867
    162  CB        34.9900   30.5180   18.6920 C.3   153  ALA153      0.0290
    163  N         39.7360   31.8660   19.3200 N.3   189  ILE189     -0.1245
    164  CA        39.6070   30.8000   20.2860 C.3   189  ILE189      0.1561
    165  C         40.3060   31.1590   21.5580 C.2   189  ILE189      0.2260
    166  O         39.9040   30.7600   22.6230 O.2   189  ILE189     -0.2867
    167  CB        40.1740   29.4960   19.6260 C.3   189  ILE189      0.0252
    168  CG1       39.0620   28.5150   19.5150 C.3   189  ILE189      0.0019
    169  CG2       41.4120   28.9910   20.2870 C.3   189  ILE189      0.0019
    170  CD1       38.1070   28.9940   18.5070 C.3   189  ILE189      0.0001
@<TRIPOS>BOND
     1    72    71    1
     2    71    73    1
     3    71    70    2
     4    63    64    1
     5    70    69    1
     6    61    60   ar
     7    69    68    1
     8    62    60   ar
     9    68    67    1
    10    67    64    1
    11    60    59    1
    12   129   128    2
    13   133   131   ar
    14    64    65    1
    15   161   160    2
    16   160   159    1
    17    81    80    2
    18   131   130    1
    19   131   132   ar
    20   138   135    1
    21   138   139    1
    22   130   127    1
    23    52    54   ar
    24    52    50   ar
    25    91    90    1
    26   128   127    1
    27   128   134   am
    28    54    53   ar
    29    80    82   am
    30    80    79    1
    31   135   134    1
    32   135   136    1
    33    59    56    1
    34    74    65   am
    35    74    75    1
    36    90    89    1
    37    65    66    2
    38    79    78    1
    39   139   141   am
    40   139   140    2
    41   127   126    1
    42   159   162    1
    43   159   158    1
    44    50    49   ar
    45    56    57    1
    46    56    55    1
    47   170   168    1
    48    57    58    2
    49    78    75    1
    50   136   137    2
    51    53    51   ar
    52    75    76    1
    53   163   164    1
    54    89    88    1
    55    77    76    2
    56    47    46    2
    57   126   121   am
    58   168   167    1
    59    49    51   ar
    60    49    48    1
    61   167   164    1
    62   167   169    1
    63    55    46   am
    64    88    87    1
    65    16    17    1
    66    16    14   am
    67   104   102    1
    68    17    18    1
    69    46    45    1
    70   164   165    1
    71    13    14    1
    72    13    12    1
    73   122   121    2
    74   121   120    1
    75    14    15    2
    76    48    45    1
    77    42    41   ar
    78    83    84    1
    79   103   102    1
    80   102   101    1
    81    45    44    1
    82    87    84    1
    83    18    20   am
    84    18    19    2
    85   142   143    1
    86    20    21    1
    87   165   166    2
    88   101    98    1
    89    43    41   ar
    90    84    85    1
    91   120   123    1
    92   120   119    1
    93    41    40    1
    94    44    38   am
    95   147   146    1
    96    25    26    1
    97    25    27    1
    98    25    24    1
    99   123   124    1
   100   123   125    1
   101   146   143    1
   102   146   148    1
   103   116   115    2
   104   143   144    1
   105    21    24    1
   106    21    22    1
   107   119   115   am
   108    98    97    1
   109    98    99    1
   110    38    39    2
   111    38    37    1
   112    40    37    1
   113    85    86    2
   114   115   114    1
   115    97    94   am
   116   144   145    2
   117    37    36    1
   118     9    10    1
   119     9     8    1
   120   100    99    2
   121    94    95    2
   122    94    93    1
   123    10    11    2
   124    99   105   am
   125    22    23    2
   126   156   155    2
   127    93    92    1
   128    93    96    1
   129   114   117    1
   130   114   113    1
   131   155   157   am
   132   155   154    1
   133   108   107    2
   134   117   118    1
   135   105   106    1
   136     8     3   am
   137   154   153    1
   138    36    30   am
   139   149   150    1
   140     4     3    2
   141    31    30    2
   142   153   150    1
   143   107   106    1
   144     3     2    1
   145    30    29    1
   146   106   109    1
   147     6     5    1
   148   150   151    1
   149     2     5    1
   150     2     1    1
   151     5     7    1
   152    33    34    1
   153    33    35    1
   154    33    32    1
   155   109   110    1
   156    29    32    1
   157    29    28    1
   158   151   152    2
   159   110   112    1
   160   110   111    1
