@<TRIPOS>MOLECULE
tmp/1jwgA00.pdb
 146 140 0 0 0
SMALL
GASTEIGER

@<TRIPOS>ATOM
      1  N         53.1670   -7.4910   90.3560 N.3    81  LYS81      -0.1231
      2  CA        54.5610   -7.3560   90.7780 C.3    81  LYS81       0.1693
      3  C         54.6910   -7.8830   92.1910 C.2    81  LYS81       0.2592
      4  O         53.7350   -7.8120   92.9720 O.2    81  LYS81      -0.2718
      5  CB        54.9870   -5.9050   90.8090 C.3    81  LYS81       0.0285
      6  CG        55.1850   -5.2960   89.4370 C.3    81  LYS81       0.0035
      7  CD        55.3570   -3.8140   89.5690 C.3    81  LYS81       0.0206
      8  CE        55.1420   -3.1180   88.2240 C.3    81  LYS81       0.1093
      9  NZ        55.4460   -1.6750   88.3990 N.3    81  LYS81      -0.1314
     10  N         55.8780   -8.3660   92.5210 N.am   82  PHE82      -0.1962
     11  CA        56.1320   -8.8730   93.8700 C.3    82  PHE82       0.1771
     12  C         55.9490   -7.7720   94.8910 C.2    82  PHE82       0.2619
     13  O         55.5830   -8.0320   96.0250 O.2    82  PHE82      -0.2715
     14  CB        57.5230   -9.4750   93.9640 C.3    82  PHE82       0.0574
     15  CG        57.6940  -10.7090   93.1220 C.ar   82  PHE82      -0.0200
     16  CD1       56.7890  -11.7510   93.2150 C.ar   82  PHE82      -0.0042
     17  CD2       58.7490  -10.8150   92.2310 C.ar   82  PHE82      -0.0042
     18  CE1       56.9220  -12.8990   92.4380 C.ar   82  PHE82      -0.0003
     19  CE2       58.9000  -11.9610   91.4510 C.ar   82  PHE82      -0.0003
     20  CZ        57.9840  -13.0020   91.5510 C.ar   82  PHE82      -0.0000
     21  N         56.1650   -6.5370   94.4510 N.am   83  ARG83      -0.1977
     22  CA        55.9720   -5.3490   95.2830 C.3    83  ARG83       0.1597
     23  C         54.5600   -5.3230   95.8990 C.2    83  ARG83       0.2287
     24  O         54.3670   -4.8550   97.0220 O.2    83  ARG83      -0.2864
     25  CB        56.1800   -4.1000   94.4330 C.3    83  ARG83       0.0334
     26  CG        56.0190   -2.8080   95.1980 C.3    83  ARG83       0.0492
     27  CD        56.5640   -1.5990   94.4620 C.3    83  ARG83       0.2205
     28  NE        58.0030   -1.7420   94.2350 N.pl3  83  ARG83      -0.0865
     29  CZ        58.5850   -1.5770   93.0560 C.cat  83  ARG83       0.5346
     30  NH1       57.8530   -1.2640   91.9910 N.pl3  83  ARG83       0.1354
     31  NH2       59.8970   -1.7280   92.9390 N.pl3  83  ARG83       0.1354
     32  N         53.8510   -9.4780   97.5420 N.3    86  ASN86      -0.1240
     33  CA        54.4860   -9.6770   98.8380 C.3    86  ASN86       0.1653
     34  C         53.5760   -9.1940   99.9760 C.2    86  ASN86       0.2266
     35  O         53.5770   -9.7780  101.0460 O.2    86  ASN86      -0.2867
     36  CB        55.8680   -8.9870   98.9220 C.3    86  ASN86       0.1155
     37  CG        56.9200   -9.6980   98.1050 C.2    86  ASN86       0.2627
     38  OD1       56.6880  -10.7970   97.5790 O.2    86  ASN86      -0.2716
     39  ND2       58.0800   -9.0850   97.9950 N.am   86  ASN86      -0.0877
     40  N         51.0860  -11.8580  100.5750 N.3    89  ILE89      -0.1231
     41  CA        51.6960  -13.0580  101.1260 C.3    89  ILE89       0.1692
     42  C         51.9220  -12.9290  102.6390 C.2    89  ILE89       0.2591
     43  O         51.7360  -13.8920  103.3860 O.2    89  ILE89      -0.2718
     44  CB        53.0190  -13.3810  100.3880 C.3    89  ILE89       0.0266
     45  CG1       52.7530  -13.8880   98.9570 C.3    89  ILE89       0.0019
     46  CG2       53.8640  -14.3890  101.1740 C.3    89  ILE89       0.0020
     47  CD1       53.9790  -13.6980   97.9800 C.3    89  ILE89       0.0001
     48  N         52.2750  -11.7260  103.0830 N.am   90  LYS90      -0.1980
     49  CA        52.4560  -11.4200  104.5030 C.3    90  LYS90       0.1596
     50  C         51.1950  -11.7300  105.3030 C.2    90  LYS90       0.2287
     51  O         51.2660  -12.1750  106.4600 O.2    90  LYS90      -0.2864
     52  CB        52.7690   -9.9290  104.6610 C.3    90  LYS90       0.0298
     53  CG        54.2420   -9.6080  104.4120 C.3    90  LYS90       0.0038
     54  CD        54.4690   -8.1150  104.4830 C.3    90  LYS90       0.0206
     55  CE        55.9110   -7.7280  104.0730 C.3    90  LYS90       0.1093
     56  NZ        55.9350   -6.2770  103.7310 N.3    90  LYS90      -0.1314
     57  N         50.9430  -15.7800  105.5360 N.3    93  SER93      -0.1203
     58  CA        52.0350  -16.6050  106.0430 C.3    93  SER93       0.2005
     59  C         52.2250  -16.4800  107.5410 C.2    93  SER93       0.2461
     60  O         52.3310  -15.3780  108.0540 O.2    93  SER93      -0.2732
     61  CB        53.3410  -16.2430  105.3390 C.3    93  SER93       0.2103
     62  OG        53.1000  -16.1140  103.9480 O.3    93  SER93      -0.2182
     63  N         52.2810  -17.6210  108.2200 N.am   94  PRO94      -0.2717
     64  CA        52.5110  -17.6980  109.6680 C.3    94  PRO94       0.1535
     65  C         53.7890  -16.9670  110.1180 C.2    94  PRO94       0.2598
     66  O         53.8860  -16.5360  111.2690 O.2    94  PRO94      -0.2715
     67  CB        52.6340  -19.2120  109.9040 C.3    94  PRO94       0.0310
     68  CG        51.7740  -19.7960  108.8230 C.3    94  PRO94       0.0237
     69  CD        52.1010  -18.9540  107.6210 C.3    94  PRO94       0.0939
     70  N         54.7360  -16.7900  109.2040 N.am   95  LYS95      -0.1964
     71  CA        55.9650  -16.0830  109.5110 C.3    95  LYS95       0.1728
     72  C         55.7040  -14.5840  109.6410 C.2    95  LYS95       0.2616
     73  O         56.4450  -13.8690  110.3120 O.2    95  LYS95      -0.2715
     74  CB        57.0340  -16.3760  108.4360 C.3    95  LYS95       0.0311
     75  CG        58.2790  -15.4760  108.4930 C.3    95  LYS95       0.0038
     76  CD        59.4430  -16.0420  107.6530 C.3    95  LYS95       0.0206
     77  CE        60.4850  -14.9470  107.3430 C.3    95  LYS95       0.1093
     78  NZ        61.4850  -15.3280  106.2740 N.3    95  LYS95      -0.1314
     79  N         54.6430  -14.0990  109.0080 N.am   96  TYR96      -0.1974
     80  CA        54.3560  -12.6680  109.0490 C.3    96  TYR96       0.1639
     81  C         53.0640  -12.3990  109.8150 C.2    96  TYR96       0.2290
     82  O         53.0850  -12.4060  111.0330 O.2    96  TYR96      -0.2864
     83  CB        54.3460  -12.0740  107.6320 C.3    96  TYR96       0.0560
     84  CG        55.7220  -12.1010  106.9940 C.ar   96  TYR96      -0.0198
     85  CD1       56.1420  -13.1870  106.2520 C.ar   96  TYR96      -0.0009
     86  CD2       56.6140  -11.0480  107.1740 C.ar   96  TYR96      -0.0009
     87  CE1       57.4090  -13.2200  105.6820 C.ar   96  TYR96       0.0417
     88  CE2       57.8900  -11.0760  106.6020 C.ar   96  TYR96       0.0417
     89  CZ        58.2670  -12.1690  105.8580 C.ar   96  TYR96       0.1957
     90  OH        59.5060  -12.2100  105.2810 O.3    96  TYR96      -0.2866
     91  N         54.3820  -13.5920   87.5220 N.3   125  LYS125     -0.1245
     92  CA        54.8290  -13.5370   88.9200 C.3   125  LYS125      0.1561
     93  C         53.6890  -13.9470   89.8810 C.2   125  LYS125      0.2260
     94  O         53.9460  -14.4080   91.0110 O.2   125  LYS125     -0.2867
     95  CB        55.3840  -12.1570   89.2760 C.3   125  LYS125      0.0271
     96  CG        56.6650  -11.7790   88.5490 C.3   125  LYS125      0.0035
     97  CD        56.9650  -10.2820   88.7410 C.3   125  LYS125      0.0206
     98  CE        58.3460   -9.9150   88.1520 C.3   125  LYS125      0.1093
     99  NZ        58.6500   -8.4690   88.3880 N.3   125  LYS125     -0.1314
    100  N         54.0340  -17.5230   90.0390 N.3   128  GLU128     -0.1231
    101  CA        55.2310  -17.8900   90.8000 C.3   128  GLU128      0.1699
    102  C         54.9460  -17.8020   92.3080 C.2   128  GLU128      0.2592
    103  O         55.2700  -18.7250   93.0830 O.2   128  GLU128     -0.2718
    104  CB        56.4420  -17.0280   90.3910 C.3   128  GLU128      0.0402
    105  CG        57.6770  -17.3780   91.2190 C.3   128  GLU128      0.1161
    106  CD        58.9470  -16.6620   90.7890 C.2   128  GLU128      0.3649
    107  OE1       58.9410  -15.8030   89.8530 O.co2 128  GLU128     -0.2457
    108  OE2       59.9640  -16.9600   91.4230 O.co2 128  GLU128     -0.2457
    109  N         54.3360  -16.6880   92.7110 N.am  129  ALA129     -0.1980
    110  CA        53.8960  -16.4880   94.0920 C.3   129  ALA129      0.1597
    111  C         52.9780  -17.6270   94.5450 C.2   129  ALA129      0.2287
    112  O         53.1660  -18.2120   95.5960 O.2   129  ALA129     -0.2864
    113  CB        53.2020  -15.1290   94.2450 C.3   129  ALA129      0.0319
    114  N         54.8340  -20.8600   95.0460 N.3   132  MET132     -0.1230
    115  CA        55.5940  -20.8040   96.2860 C.3   132  MET132      0.1702
    116  C         54.6810  -21.1620   97.4260 C.2   132  MET132      0.2592
    117  O         55.0260  -21.9480   98.2950 O.2   132  MET132     -0.2718
    118  CB        56.1940  -19.4120   96.5360 C.3   132  MET132      0.0401
    119  CG        57.0710  -19.4140   97.8150 C.3   132  MET132      0.0596
    120  SD        57.7700  -17.8250   98.1520 S.3   132  MET132     -0.1393
    121  CE        56.2450  -16.9200   98.6490 C.3   132  MET132      0.0692
    122  N         53.4950  -20.5660   97.4260 N.am  133  LEU133     -0.1980
    123  CA        52.5290  -20.8270   98.4750 C.3   133  LEU133      0.1596
    124  C         52.1410  -22.2990   98.5790 C.2   133  LEU133      0.2287
    125  O         51.9140  -22.7900   99.6780 O.2   133  LEU133     -0.2864
    126  CB        51.2970  -19.9100   98.3450 C.3   133  LEU133      0.0297
    127  CG        51.5560  -18.4070   98.5020 C.3   133  LEU133      0.0022
    128  CD1       50.2930  -17.5480   98.3020 C.3   133  LEU133      0.0001
    129  CD2       52.1310  -18.1140   99.8740 C.3   133  LEU133      0.0001
    130  N         55.2420  -24.2530   99.9840 N.3   136  GLN136     -0.1245
    131  CA        55.4300  -23.9300  101.3880 C.3   136  GLN136      0.1566
    132  C         54.2700  -24.4370  102.2210 C.2   136  GLN136      0.2260
    133  O         54.2140  -24.2360  103.4340 O.2   136  GLN136     -0.2867
    134  CB        55.6140  -22.4200  101.5520 C.3   136  GLN136      0.0367
    135  CG        56.9560  -21.9560  100.9830 C.3   136  GLN136      0.0905
    136  CD        58.0970  -22.5100  101.8120 C.2   136  GLN136      0.2608
    137  OE1       57.9950  -22.5160  103.0400 O.2   136  GLN136     -0.2717
    138  NE2       59.1110  -23.0490  101.1630 N.am  136  GLN136     -0.0878
    139  N         50.9970  -23.5310  102.1730 N.3   138  ILE138     -0.1245
    140  CA        49.8840  -22.6210  102.4590 C.3   138  ILE138      0.1561
    141  C         48.6510  -23.1010  101.6980 C.2   138  ILE138      0.2260
    142  O         47.6290  -23.4220  102.2860 O.2   138  ILE138     -0.2867
    143  CB        50.2410  -21.1820  102.0550 C.3   138  ILE138      0.0252
    144  CG1       51.6460  -20.8330  102.5200 C.3   138  ILE138      0.0019
    145  CG2       49.2930  -20.1970  102.6820 C.3   138  ILE138      0.0019
    146  CD1       51.7890  -20.6930  104.0350 C.3   138  ILE138      0.0001
@<TRIPOS>BOND
     1    91    92    1
     2    98    99    1
     3    98    97    1
     4     8     9    1
     5     8     7    1
     6    96    97    1
     7    96    95    1
     8    92    95    1
     9    92    93    1
    10     6     7    1
    11     6     5    1
    12   107   106   ar
    13    93    94    2
    14   100   101    1
    15     1     2    1
    16   104   101    1
    17   104   105    1
    18     2     5    1
    19     2     3    1
    20   106   105    1
    21   106   108   ar
    22   101   102    1
    23    19    20   ar
    24    19    17   ar
    25    20    18   ar
    26    30    29    1
    27     3    10   am
    28     3     4    2
    29    17    15   ar
    30   102   109   am
    31   102   103    2
    32    18    16   ar
    33    10    11    1
    34   109   110    1
    35    31    29    1
    36    29    28    2
    37    15    16   ar
    38    15    14    1
    39    11    14    1
    40    11    12    1
    41   110   113    1
    42   110   111    1
    43    28    27    1
    44    25    26    1
    45    25    22    1
    46    21    12   am
    47    21    22    1
    48    27    26    1
    49   111   112    2
    50    12    13    2
    51   114   115    1
    52    22    23    1
    53    23    24    2
    54   115   118    1
    55   115   116    1
    56   118   119    1
    57   122   116   am
    58   122   123    1
    59   116   117    2
    60    32    33    1
    61    38    37    2
    62   119   120    1
    63    47    45    1
    64    39    37   am
    65    37    36    1
    66   120   121    1
    67   128   127    1
    68   126   123    1
    69   126   127    1
    70   123   124    1
    71   127   129    1
    72   124   125    2
    73    33    36    1
    74    33    34    1
    75    45    44    1
    76    34    35    2
    77   130   131    1
    78    44    41    1
    79    44    46    1
    80    40    41    1
    81   135   134    1
    82   135   136    1
    83    41    42    1
    84   138   136   am
    85   131   134    1
    86   131   132    1
    87   141   142    2
    88   141   140    1
    89   136   137    2
    90   143   140    1
    91   143   144    1
    92   143   145    1
    93   139   140    1
    94   132   133    2
    95   144   146    1
    96    42    48   am
    97    42    43    2
    98    48    49    1
    99    56    55    1
   100    62    61    1
   101    55    54    1
   102    53    54    1
   103    53    52    1
   104    49    52    1
   105    49    50    1
   106    90    89    1
   107    50    51    2
   108    61    58    1
   109    57    58    1
   110    87    89   ar
   111    87    85   ar
   112    89    88   ar
   113    58    59    1
   114    85    84   ar
   115    78    77    1
   116    88    86   ar
   117    84    86   ar
   118    84    83    1
   119    77    76    1
   120    59    60    2
   121    59    63   am
   122    69    63    1
   123    69    68    1
   124    83    80    1
   125    76    75    1
   126    63    64    1
   127    74    75    1
   128    74    71    1
   129    68    67    1
   130    79    80    1
   131    79    72   am
   132    80    81    1
   133    70    71    1
   134    70    65   am
   135    71    72    1
   136    72    73    2
   137    64    67    1
   138    64    65    1
   139    81    82    2
   140    65    66    2
