@<TRIPOS>MOLECULE
tmp/1jwhA00.pdb
 165 155 0 0 0
SMALL
GASTEIGER

@<TRIPOS>ATOM
      1  N          7.4270   51.4650  -54.2960 N.3    44  LEU44      -0.1245
      2  CA         6.6610   52.4180  -53.5060 C.3    44  LEU44       0.1561
      3  C          5.1660   52.1050  -53.3270 C.2    44  LEU44       0.2260
      4  O          4.3410   53.0110  -53.2040 O.2    44  LEU44      -0.2867
      5  CB         6.8400   53.8120  -54.1040 C.3    44  LEU44       0.0270
      6  CG         8.1730   54.5130  -53.8350 C.3    44  LEU44       0.0019
      7  CD1        7.9750   55.9930  -54.0880 C.3    44  LEU44       0.0001
      8  CD2        8.6340   54.3080  -52.3900 C.3    44  LEU44       0.0001
      9  N          1.8590   48.8450  -54.0240 N.3    46  ARG46      -0.1231
     10  CA         1.2050   48.0380  -55.0430 C.3    46  ARG46       0.1694
     11  C         -0.0450   48.7650  -55.4980 C.2    46  ARG46       0.2593
     12  O         -0.1320   49.9860  -55.4200 O.2    46  ARG46      -0.2718
     13  CB         0.8140   46.6790  -54.4620 C.3    46  ARG46       0.0321
     14  CG        -0.1790   46.8000  -53.3230 C.3    46  ARG46       0.0489
     15  CD        -0.0650   45.6480  -52.3540 C.3    46  ARG46       0.2205
     16  NE        -0.4190   46.0660  -51.0010 N.pl3  46  ARG46      -0.0865
     17  CZ         0.1580   47.0770  -50.3550 C.cat  46  ARG46       0.5346
     18  NH1        1.1220   47.7850  -50.9330 N.pl3  46  ARG46       0.1354
     19  NH2       -0.2200   47.3790  -49.1210 N.pl3  46  ARG46       0.1354
     20  N         -1.0210   48.0010  -55.9620 N.am   47  GLY47      -0.1942
     21  CA        -2.2590   48.5910  -56.4140 C.3    47  GLY47       0.2014
     22  C         -3.0950   47.4970  -57.0240 C.2    47  GLY47       0.2638
     23  O         -2.8860   46.3230  -56.7380 O.2    47  GLY47      -0.2714
     24  N         -4.0380   47.8780  -57.8720 N.am   48  LYS48      -0.1977
     25  CA        -4.8970   46.9120  -58.5310 C.3    48  LYS48       0.1596
     26  C         -4.8690   47.1850  -60.0270 C.2    48  LYS48       0.2287
     27  O         -5.0250   46.2720  -60.8390 O.2    48  LYS48      -0.2864
     28  CB        -6.3200   47.0230  -57.9840 C.3    48  LYS48       0.0298
     29  CG        -6.4300   46.7270  -56.4920 C.3    48  LYS48       0.0038
     30  CD        -6.0410   45.2890  -56.1680 C.3    48  LYS48       0.0206
     31  CE        -6.2680   44.9720  -54.6960 C.3    48  LYS48       0.1093
     32  NZ        -6.0280   43.5370  -54.3730 N.3    48  LYS48      -0.1314
     33  N         -2.4340   49.7570  -61.0810 N.3    50  SER50      -0.1217
     34  CA        -1.1430   50.4050  -61.2800 C.3    50  SER50       0.1889
     35  C         -0.2190   50.1910  -60.0840 C.2    50  SER50       0.2288
     36  O         -0.6520   50.2280  -58.9310 O.2    50  SER50      -0.2866
     37  CB        -1.3030   51.9110  -61.5620 C.3    50  SER50       0.2089
     38  OG        -1.7700   52.6360  -60.4380 O.3    50  SER50      -0.2183
     39  N          3.4090   51.3480  -58.2290 N.3    52  VAL52      -0.1245
     40  CA         4.3760   52.4110  -58.1250 C.3    52  VAL52       0.1561
     41  C          5.6810   52.0180  -57.4620 C.2    52  VAL52       0.2260
     42  O          5.6920   51.4020  -56.3980 O.2    52  VAL52      -0.2867
     43  CB         3.7750   53.6100  -57.3390 C.3    52  VAL52       0.0252
     44  CG1        4.7640   54.7760  -57.3160 C.3    52  VAL52       0.0019
     45  CG2        2.4710   54.0420  -57.9610 C.3    52  VAL52       0.0019
     46  N          9.8230   58.7110  -59.8860 N.3    65  VAL65      -0.1245
     47  CA         8.8550   57.7210  -59.4420 C.3    65  VAL65       0.1561
     48  C          8.1530   57.1460  -60.6570 C.2    65  VAL65       0.2260
     49  O          7.9460   57.8470  -61.6540 O.2    65  VAL65      -0.2867
     50  CB         7.8040   58.2920  -58.4970 C.3    65  VAL65       0.0252
     51  CG1        6.9890   57.1180  -57.9010 C.3    65  VAL65       0.0019
     52  CG2        8.4770   59.1370  -57.4060 C.3    65  VAL65       0.0019
     53  N          4.8350   54.8540  -61.9980 N.3    67  LYS67      -0.1245
     54  CA         3.5330   54.2330  -61.8830 C.3    67  LYS67       0.1561
     55  C          3.4710   53.3610  -63.1330 C.2    67  LYS67       0.2260
     56  O          3.8830   53.7830  -64.2170 O.2    67  LYS67      -0.2867
     57  CB         2.4610   55.3370  -61.9130 C.3    67  LYS67       0.0271
     58  CG         1.0650   54.9570  -61.4230 C.3    67  LYS67       0.0035
     59  CD         0.1380   56.1770  -61.4790 C.3    67  LYS67       0.0206
     60  CE        -1.3130   55.7880  -61.2960 C.3    67  LYS67       0.1093
     61  NZ        -2.1830   56.9450  -61.5750 N.3    67  LYS67      -0.1314
     62  N          1.3650   68.3320  -59.5150 N.3    94  ILE94      -0.1245
     63  CA         2.3620   67.3090  -59.8240 C.3    94  ILE94       0.1561
     64  C          2.8180   67.3040  -61.2810 C.2    94  ILE94       0.2260
     65  O          2.0410   67.0170  -62.1930 O.2    94  ILE94      -0.2867
     66  CB         1.8200   65.9160  -59.4770 C.3    94  ILE94       0.0252
     67  CG1        2.9040   64.8600  -59.7060 C.3    94  ILE94       0.0019
     68  CG2        0.5650   65.6350  -60.2990 C.3    94  ILE94       0.0019
     69  CD1        4.0890   64.9810  -58.7820 C.3    94  ILE94       0.0001
     70  N          6.7360   60.6540  -62.9110 N.3   112  PHE112     -0.1227
     71  CA         6.4970   61.9650  -62.3020 C.3   112  PHE112      0.1736
     72  C          7.7380   62.4200  -61.5640 C.2   112  PHE112      0.2595
     73  O          8.7280   61.7100  -61.5290 O.2   112  PHE112     -0.2718
     74  CB         5.3730   61.8810  -61.2790 C.3   112  PHE112      0.0547
     75  CG         4.2340   61.0000  -61.6900 C.ar  112  PHE112     -0.0202
     76  CD1        3.4560   61.3090  -62.7980 C.ar  112  PHE112     -0.0042
     77  CD2        3.9290   59.8610  -60.9550 C.ar  112  PHE112     -0.0042
     78  CE1        2.3890   60.4950  -63.1640 C.ar  112  PHE112     -0.0003
     79  CE2        2.8670   59.0450  -61.3130 C.ar  112  PHE112     -0.0003
     80  CZ         2.0960   59.3580  -62.4180 C.ar  112  PHE112     -0.0000
     81  N          7.6770   63.6000  -60.9630 N.am  113  GLU113     -0.1965
     82  CA         8.8040   64.0900  -60.1940 C.3   113  GLU113      0.1733
     83  C          8.8070   63.2740  -58.9070 C.2   113  GLU113      0.2616
     84  O          7.8770   62.4940  -58.6530 O.2   113  GLU113     -0.2715
     85  CB         8.6530   65.5920  -59.8900 C.3   113  GLU113      0.0429
     86  CG         7.2990   66.0220  -59.3410 C.3   113  GLU113      0.1163
     87  CD         7.2120   67.5200  -59.0860 C.2   113  GLU113      0.3649
     88  OE1        7.9470   68.0140  -58.2080 O.co2 113  GLU113     -0.2457
     89  OE2        6.4100   68.2050  -59.7570 O.co2 113  GLU113     -0.2457
     90  N          9.8610   63.4250  -58.1140 N.am  114  HIS114     -0.1959
     91  CA         9.9620   62.7020  -56.8550 C.3   114  HIS114      0.1787
     92  C          9.5070   63.5850  -55.7030 C.2   114  HIS114      0.2620
     93  O          9.5890   64.8080  -55.7740 O.2   114  HIS114     -0.2715
     94  CB        11.3940   62.2400  -56.6130 C.3   114  HIS114      0.0785
     95  CG        11.5610   61.4290  -55.3650 C.ar  114  HIS114      0.0821
     96  ND1       11.4710   61.9740  -54.1010 N.ar  114  HIS114     -0.2267
     97  CD2       11.7990   60.1080  -55.1880 C.ar  114  HIS114      0.1154
     98  CE1       11.6470   61.0230  -53.2010 C.ar  114  HIS114      0.1986
     99  NE2       11.8470   59.8810  -53.8340 N.ar  114  HIS114     -0.2212
    100  N          9.0400   62.9570  -54.6340 N.am  115  VAL115     -0.1977
    101  CA         8.5440   63.6950  -53.4900 C.3   115  VAL115      0.1596
    102  C          8.7110   62.9190  -52.1880 C.2   115  VAL115      0.2287
    103  O          8.1410   61.8450  -52.0420 O.2   115  VAL115     -0.2864
    104  CB         7.0590   63.9960  -53.6790 C.3   115  VAL115      0.0276
    105  CG1        6.5290   64.7160  -52.4660 C.3   115  VAL115      0.0022
    106  CG2        6.8480   64.8260  -54.9350 C.3   115  VAL115      0.0022
    107  N          7.4310   62.0370  -49.3220 N.3   117  ASN117     -0.1240
    108  CA         6.2530   62.0160  -48.4730 C.3   117  ASN117      0.1653
    109  C          6.4810   61.4440  -47.0780 C.2   117  ASN117      0.2266
    110  O          7.0830   60.3810  -46.9120 O.2   117  ASN117     -0.2867
    111  CB         5.1270   61.2490  -49.1610 C.3   117  ASN117      0.1155
    112  CG         3.8430   61.2490  -48.3460 C.2   117  ASN117      0.2627
    113  OD1        3.4810   62.2640  -47.7470 O.2   117  ASN117     -0.2716
    114  ND2        3.1390   60.1160  -48.3290 N.am  117  ASN117     -0.0877
    115  N         -7.8560   63.7970  -51.1480 N.3   157  LYS157     -0.1245
    116  CA        -7.7970   63.1630  -49.8380 C.3   157  LYS157      0.1561
    117  C         -6.3460   63.0550  -49.3790 C.2   157  LYS157      0.2260
    118  O         -5.4300   63.0000  -50.1990 O.2   157  LYS157     -0.2867
    119  CB        -8.4510   61.7740  -49.8840 C.3   157  LYS157      0.0271
    120  CG        -7.9260   60.8670  -50.9800 C.3   157  LYS157      0.0035
    121  CD        -8.6870   59.5460  -51.0440 C.3   157  LYS157      0.0206
    122  CE        -7.8830   58.5400  -51.8390 C.3   157  LYS157      0.1093
    123  NZ        -8.2750   57.1380  -51.6200 N.3   157  LYS157     -0.1314
    124  N         -4.5600   60.8370  -48.7170 N.3   159  HIS159     -0.1226
    125  CA        -3.9270   59.7990  -49.5030 C.3   159  HIS159      0.1752
    126  C         -3.3520   60.3430  -50.8020 C.2   159  HIS159      0.2596
    127  O         -2.3550   59.8410  -51.2920 O.2   159  HIS159     -0.2718
    128  CB        -4.9370   58.6970  -49.8290 C.3   159  HIS159      0.0759
    129  CG        -5.6090   58.1010  -48.6290 C.ar  159  HIS159      0.0818
    130  ND1       -5.1980   56.9200  -48.0500 N.ar  159  HIS159     -0.2268
    131  CD2       -6.6820   58.5150  -47.9120 C.ar  159  HIS159      0.1154
    132  CE1       -5.9880   56.6300  -47.0330 C.ar  159  HIS159      0.1986
    133  NE2       -6.8980   57.5820  -46.9270 N.ar  159  HIS159     -0.2212
    134  N         -3.9700   61.3710  -51.3620 N.am  160  ASN160     -0.1974
    135  CA        -3.4890   61.9020  -52.6200 C.3   160  ASN160      0.1688
    136  C         -2.6650   63.1540  -52.5970 C.2   160  ASN160      0.2292
    137  O         -2.5170   63.8050  -53.6220 O.2   160  ASN160     -0.2864
    138  CB        -4.6420   62.1220  -53.5870 C.3   160  ASN160      0.1181
    139  CG        -5.0820   60.8490  -54.2390 C.2   160  ASN160      0.2629
    140  OD1       -4.2550   60.0240  -54.6210 O.2   160  ASN160     -0.2716
    141  ND2       -6.3860   60.6760  -54.3850 N.am  160  ASN160     -0.0877
    142  N          1.0480   64.5280  -51.7590 N.3   162  MET162     -0.1245
    143  CA         2.4460   64.3060  -51.4060 C.3   162  MET162      0.1570
    144  C          3.0010   65.5230  -50.7090 C.2   162  MET162      0.2261
    145  O          2.9770   66.6170  -51.2560 O.2   162  MET162     -0.2867
    146  CB         3.2650   64.0040  -52.6640 C.3   162  MET162      0.0387
    147  CG         2.8720   62.7000  -53.3490 C.3   162  MET162      0.0595
    148  SD         2.9950   61.2870  -52.2200 S.3   162  MET162     -0.1393
    149  CE         1.3170   60.8880  -51.9190 C.3   162  MET162      0.0692
    150  N         -1.9280   64.2330  -56.4040 N.3   173  ILE173     -0.1231
    151  CA        -1.7640   63.0390  -57.2240 C.3   173  ILE173      0.1692
    152  C         -3.0610   62.4090  -57.6870 C.2   173  ILE173      0.2592
    153  O         -4.1200   63.0130  -57.6000 O.2   173  ILE173     -0.2718
    154  CB        -0.9910   61.9710  -56.4690 C.3   173  ILE173      0.0266
    155  CG1       -1.7980   61.5510  -55.2440 C.3   173  ILE173      0.0019
    156  CG2        0.3710   62.5000  -56.0660 C.3   173  ILE173      0.0020
    157  CD1       -1.2660   60.3310  -54.5290 C.3   173  ILE173      0.0001
    158  N         -2.9490   61.1750  -58.1710 N.am  174  ASP174     -0.1974
    159  CA        -4.0780   60.4000  -58.6740 C.3   174  ASP174      0.1709
    160  C         -5.0980   61.1480  -59.5000 C.2   174  ASP174      0.2293
    161  O         -6.2250   61.4190  -59.0550 O.2   174  ASP174     -0.2864
    162  CB        -4.7930   59.6920  -57.5420 C.3   174  ASP174      0.1436
    163  CG        -4.2040   58.3570  -57.2680 C.2   174  ASP174      0.3671
    164  OD1       -3.8610   57.6780  -58.2660 O.co2 174  ASP174     -0.2456
    165  OD2       -4.0910   57.9910  -56.0760 O.co2 174  ASP174     -0.2456
@<TRIPOS>BOND
     1    56    55    2
     2    78    76   ar
     3    78    80   ar
     4    55    54    1
     5    70    71    1
     6    76    75   ar
     7    80    79   ar
     8    71    72    1
     9    71    74    1
    10    65    64    2
    11    53    54    1
    12    57    54    1
    13    57    58    1
    14    75    74    1
    15    75    77   ar
    16    49    48    2
    17    61    60    1
    18    72    73    2
    19    72    81   am
    20    37    34    1
    21    37    38    1
    22    59    58    1
    23    59    60    1
    24    79    77   ar
    25    64    63    1
    26    34    33    1
    27    34    35    1
    28    81    82    1
    29    27    26    2
    30    48    47    1
    31    68    66    1
    32    82    85    1
    33    82    83    1
    34    35    36    2
    35    26    25    1
    36    85    86    1
    37    46    47    1
    38    63    62    1
    39    63    66    1
    40    89    87   ar
    41    67    66    1
    42    67    69    1
    43   160   161    2
    44   160   159    1
    45    47    50    1
    46    86    87    1
    47    87    88   ar
    48    83    84    2
    49    83    90   am
    50   159   158    1
    51   159   162    1
    52    25    28    1
    53    25    24    1
    54    50    51    1
    55    50    52    1
    56   164   163   ar
    57    39    40    1
    58   158   152   am
    59    40    41    1
    60    40    43    1
    61    90    91    1
    62    28    29    1
    63    45    43    1
    64    24    22   am
    65   152   153    2
    66   152   151    1
    67   162   163    1
    68    41    42    2
    69    43    44    1
    70   163   165   ar
    71   151   154    1
    72   151   150    1
    73    22    23    2
    74    22    21    1
    75    91    94    1
    76    91    92    1
    77    94    95    1
    78    29    30    1
    79   154   156    1
    80   154   155    1
    81    21    20    1
    82    30    31    1
    83    20    11   am
    84    93    92    2
    85    92   100   am
    86    11    12    2
    87    11    10    1
    88    95    97   ar
    89    95    96   ar
    90   155   157    1
    91    97    99   ar
    92    10    13    1
    93    10     9    1
    94   106   104    1
    95    31    32    1
    96   100   101    1
    97   140   139    2
    98    13    14    1
    99   141   139   am
   100     1     2    1
   101   139   138    1
   102     5     6    1
   103     5     2    1
   104    96    98   ar
   105     7     6    1
   106     6     8    1
   107    99    98   ar
   108   104   101    1
   109   104   105    1
   110   137   136    2
   111   138   135    1
   112     2     3    1
   113   101   102    1
   114   147   146    1
   115   147   148    1
   116     3     4    2
   117    14    15    1
   118   146   143    1
   119   135   136    1
   120   135   134    1
   121    15    16    1
   122   148   149    1
   123   102   103    2
   124   122   123    1
   125   122   121    1
   126   142   143    1
   127   143   144    1
   128   134   126   am
   129   127   126    2
   130   145   144    2
   131   115   116    1
   132   121   120    1
   133    16    17    2
   134   120   119    1
   135    18    17    1
   136   126   125    1
   137    17    19    1
   138   118   117    2
   139   119   116    1
   140   116   117    1
   141   128   125    1
   142   128   129    1
   143   125   124    1
   144   107   108    1
   145   111   108    1
   146   111   112    1
   147   129   130   ar
   148   129   131   ar
   149   108   109    1
   150   112   114   am
   151   112   113    2
   152   130   132   ar
   153   131   133   ar
   154   109   110    2
   155   132   133   ar
