@<TRIPOS>MOLECULE
tmp/1jwtA00.pdb
 210 212 0 0 0
SMALL
GASTEIGER

@<TRIPOS>ATOM
      1  N         22.3330   -6.8950   18.5710 N.3    79  HIS79      -0.1241
      2  CA        22.2840   -8.2050   17.9670 C.3    79  HIS79       0.1621
      3  C         21.4380   -8.2920   16.7190 C.2    79  HIS79       0.2264
      4  O         21.2850   -9.3240   16.0640 O.2    79  HIS79      -0.2867
      5  CB        21.8700   -9.2330   19.0010 C.3    79  HIS79       0.0745
      6  CG        20.3720   -9.1950   19.1880 C.ar   79  HIS79       0.0817
      7  ND1       19.8020   -8.5370   20.1900 N.ar   79  HIS79      -0.2268
      8  CD2       19.3530   -9.7450   18.3810 C.ar   79  HIS79       0.1154
      9  CE1       18.4440   -8.6480   20.0340 C.ar   79  HIS79       0.1986
     10  NE2       18.1620   -9.3920   18.9110 N.ar   79  HIS79      -0.2212
     11  N         26.2770  -10.8780   15.7510 N.3    83  TYR83      -0.1241
     12  CA        25.8020  -12.0270   16.5440 C.3    83  TYR83       0.1605
     13  C         26.4300  -13.3890   16.2160 C.2    83  TYR83       0.2264
     14  O         25.7780  -14.3300   15.7880 O.2    83  TYR83      -0.2867
     15  CB        24.3010  -12.3000   16.4800 C.3    83  TYR83       0.0534
     16  CG        24.0620  -13.1880   17.6640 C.ar   83  TYR83      -0.0201
     17  CD1       24.5520  -12.7540   18.9110 C.ar   83  TYR83      -0.0009
     18  CD2       23.4020  -14.4070   17.5090 C.ar   83  TYR83      -0.0009
     19  CE1       24.2710  -13.5030   20.0580 C.ar   83  TYR83       0.0417
     20  CE2       23.1060  -15.1640   18.6650 C.ar   83  TYR83       0.0417
     21  CZ        23.4930  -14.6710   19.9500 C.ar   83  TYR83       0.1957
     22  OH        23.1300  -15.2980   21.1410 O.3    83  TYR83      -0.2866
     23  N         25.0700  -17.4300   15.7440 N.3    86  TRP86      -0.1241
     24  CA        24.2350  -17.7430   14.5500 C.3    86  TRP86       0.1605
     25  C         24.6980  -17.0030   13.2930 C.2    86  TRP86       0.2264
     26  O         23.9730  -16.1830   12.7570 O.2    86  TRP86      -0.2867
     27  CB        22.7430  -17.3300   14.6550 C.3    86  TRP86       0.0550
     28  CG        21.9820  -17.7920   15.8810 C.ar   86  TRP86       0.0003
     29  CD1       22.2690  -18.8930   16.7070 C.ar   86  TRP86       0.0946
     30  CD2       20.7420  -17.2270   16.3810 C.ar   86  TRP86       0.0152
     31  NE1       21.3010  -19.0430   17.6560 N.ar   86  TRP86      -0.2442
     32  CE2       20.3300  -18.0410   17.4920 C.ar   86  TRP86       0.0810
     33  CE3       19.9520  -16.1280   15.9870 C.ar   86  TRP86       0.0012
     34  CZ2       19.1120  -17.7620   18.1580 C.ar   86  TRP86       0.0191
     35  CZ3       18.7460  -15.8560   16.6710 C.ar   86  TRP86       0.0001
     36  CH2       18.3230  -16.6750   17.7430 C.ar   86  TRP86       0.0015
     37  N         28.2800  -10.3210   23.6420 N.3   128  TRP128     -0.1241
     38  CA        27.6060  -11.3880   22.8610 C.3   128  TRP128      0.1605
     39  C         27.9710  -12.8130   23.1810 C.2   128  TRP128      0.2264
     40  O         27.2740  -13.7640   22.8940 O.2   128  TRP128     -0.2867
     41  CB        27.7650  -11.2040   21.3450 C.3   128  TRP128      0.0550
     42  CG        29.2190  -11.2310   20.9350 C.ar  128  TRP128      0.0003
     43  CD1       30.0890  -10.1430   20.9000 C.ar  128  TRP128      0.0946
     44  CD2       30.0360  -12.3510   20.5290 C.ar  128  TRP128      0.0152
     45  NE1       31.3520  -10.4900   20.5220 N.ar  128  TRP128     -0.2442
     46  CE2       31.3650  -11.8530   20.2700 C.ar  128  TRP128      0.0810
     47  CE3       29.7590  -13.7220   20.3420 C.ar  128  TRP128      0.0012
     48  CZ2       32.3760  -12.7290   19.8290 C.ar  128  TRP128      0.0191
     49  CZ3       30.7890  -14.5750   19.9050 C.ar  128  TRP128      0.0001
     50  CH2       32.0870  -14.0930   19.6420 C.ar  128  TRP128      0.0015
     51  N         28.4770  -13.5900   26.3950 N.3   130  GLU130     -0.1231
     52  CA        28.0610  -14.1980   27.6550 C.3   130  GLU130      0.1699
     53  C         26.6020  -14.1530   27.9750 C.2   130  GLU130      0.2592
     54  O         25.9230  -15.1290   28.2160 O.2   130  GLU130     -0.2718
     55  CB        28.9140  -13.6100   28.7310 C.3   130  GLU130      0.0402
     56  CG        28.9540  -14.4220   29.9810 C.3   130  GLU130      0.1161
     57  CD        28.7930  -13.4100   31.0580 C.2   130  GLU130      0.3649
     58  OE1       29.6390  -12.5050   31.1930 O.co2 130  GLU130     -0.2457
     59  OE2       27.7840  -13.5220   31.7560 O.co2 130  GLU130     -0.2457
     60  N         26.1380  -12.9140   27.9010 N.am  131  ASN131     -0.1960
     61  CA        24.7690  -12.6110   28.2830 C.3   131  ASN131      0.1819
     62  C         24.1220  -11.4300   27.5480 C.2   131  ASN131      0.2621
     63  O         23.3210  -10.7350   28.1300 O.2   131  ASN131     -0.2715
     64  CB        24.7670  -12.4280   29.8260 C.3   131  ASN131      0.1195
     65  CG        25.5650  -11.2320   30.2440 C.2   131  ASN131      0.2630
     66  OD1       26.2510  -10.5670   29.4750 O.2   131  ASN131     -0.2716
     67  ND2       25.3510  -10.8510   31.4840 N.am  131  ASN131     -0.0877
     68  N         24.5010  -11.1060   26.3140 N.am  132  LEU132     -0.1977
     69  CA        24.0960   -9.7800   25.7980 C.3   132  LEU132      0.1596
     70  C         24.1480   -8.5230   26.7310 C.2   132  LEU132      0.2287
     71  O         23.4030   -7.5630   26.6250 O.2   132  LEU132     -0.2864
     72  CB        22.7810   -9.8030   25.0040 C.3   132  LEU132      0.0297
     73  CG        22.5670  -10.8420   23.8770 C.3   132  LEU132      0.0022
     74  CD1       21.1800  -10.7790   23.2480 C.3   132  LEU132      0.0001
     75  CD2       23.5050  -10.6860   22.7030 C.3   132  LEU132      0.0001
     76  N         20.2450  -16.9420   33.2480 N.3   209  ILE209     -0.1245
     77  CA        21.2220  -15.9450   32.7770 C.3   209  ILE209      0.1561
     78  C         21.8080  -15.0610   33.9380 C.2   209  ILE209      0.2260
     79  O         21.1030  -14.7720   34.9070 O.2   209  ILE209     -0.2867
     80  CB        20.5060  -15.1610   31.6380 C.3   209  ILE209      0.0252
     81  CG1       20.1510  -16.0600   30.4580 C.3   209  ILE209      0.0019
     82  CG2       21.3150  -13.9820   31.0980 C.3   209  ILE209      0.0019
     83  CD1       21.3530  -16.7820   29.8660 C.3   209  ILE209      0.0001
     84  N          3.8080  -10.2450   25.8530 N.3   229  ASP229     -0.1225
     85  CA         5.2430  -10.2300   25.6120 C.3   229  ASP229      0.1805
     86  C          5.4910   -9.6750   24.1970 C.2   229  ASP229      0.2598
     87  O          4.5900   -9.6230   23.3500 O.2   229  ASP229     -0.2718
     88  CB         5.7860  -11.6420   25.7130 C.3   229  ASP229      0.1424
     89  CG         7.1600  -11.7270   26.2690 C.2   229  ASP229      0.3668
     90  OD1        7.8200  -10.7080   26.3820 O.co2 229  ASP229     -0.2456
     91  OD2        7.5570  -12.8400   26.5950 O.co2 229  ASP229     -0.2456
     92  N          6.7380   -9.2200   23.9900 N.am  230  ALA230     -0.1966
     93  CA         7.2350   -9.0200   22.6380 C.3   230  ALA230      0.1728
     94  C          7.6040  -10.3930   22.0800 C.2   230  ALA230      0.2616
     95  O          7.0230  -11.3300   22.6160 O.2   230  ALA230     -0.2715
     96  CB         8.4150   -8.1080   22.7040 C.3   230  ALA230      0.0334
     97  N          8.4940  -10.5070   21.0370 N.am  231  CYS231     -0.1954
     98  CA         8.8390  -11.8070   20.3790 C.3   231  CYS231      0.1843
     99  C          9.6390  -11.7270   19.0340 C.2   231  CYS231      0.2625
    100  O          9.9400  -10.6170   18.6220 O.2   231  CYS231     -0.2714
    101  CB         7.5780  -12.5960   20.1040 C.3   231  CYS231      0.0997
    102  SG         7.7450  -14.3700   19.8940 S.3   231  CYS231     -0.0797
    103  N          9.9570  -12.8760   18.3390 N.am  232  GLU232     -0.1963
    104  CA        10.7930  -12.9360   17.1010 C.3   232  GLU232      0.1733
    105  C         10.6240  -11.9490   15.8710 C.2   232  GLU232      0.2616
    106  O          9.5890  -11.8160   15.2190 O.2   232  GLU232     -0.2715
    107  CB        10.9270  -14.3960   16.6730 C.3   232  GLU232      0.0429
    108  CG        12.1020  -15.1900   17.2960 C.3   232  GLU232      0.1163
    109  CD        12.0410  -15.6600   18.8080 C.2   232  GLU232      0.3649
    110  OE1       11.2770  -15.0920   19.6090 O.co2 232  GLU232     -0.2457
    111  OE2       12.7810  -16.6100   19.1660 O.co2 232  GLU232     -0.2457
    112  N         11.7240  -11.1900   15.6060 N.am  233  GLY233     -0.1955
    113  CA        11.6130  -10.0080   14.7150 C.3   233  GLY233      0.1869
    114  C         11.1800   -8.6400   15.3020 C.2   233  GLY233      0.2309
    115  O         11.1110   -7.6380   14.5950 O.2   233  GLY233     -0.2863
    116  N         12.9050   -7.4350   18.2000 N.3   235  SER235     -0.1217
    117  CA        14.1740   -6.8940   18.6910 C.3   235  SER235      0.1889
    118  C         14.5130   -5.5140   18.2060 C.2   235  SER235      0.2288
    119  O         14.2010   -5.2160   17.0810 O.2   235  SER235     -0.2866
    120  CB        15.3120   -7.7870   18.2340 C.3   235  SER235      0.2089
    121  OG        14.9750   -9.1720   18.4180 O.3   235  SER235     -0.2183
    122  N         13.8720   -3.4940   22.8460 N.3   255  VAL255     -0.1231
    123  CA        13.7370   -4.9570   22.8760 C.3   255  VAL255      0.1692
    124  C         15.0260   -5.7690   22.6870 C.2   255  VAL255      0.2593
    125  O         15.6930   -5.6380   21.6790 O.2   255  VAL255     -0.2718
    126  CB        12.7170   -5.3660   21.8660 C.3   255  VAL255      0.0266
    127  CG1       12.3120   -6.8340   22.0170 C.3   255  VAL255      0.0020
    128  CG2       11.5060   -4.4420   21.9610 C.3   255  VAL255      0.0020
    129  N         15.3600   -6.5720   23.7110 N.am  256  SER256     -0.1938
    130  CA        16.6100   -7.3200   23.6910 C.3   256  SER256      0.2055
    131  C         16.3410   -8.8010   23.7990 C.2   256  SER256      0.2643
    132  O         16.2000   -9.4680   22.7930 O.2   256  SER256     -0.2714
    133  CB        17.5330   -6.8140   24.7760 C.3   256  SER256      0.2130
    134  OG        18.6980   -7.6190   24.8440 O.3   256  SER256     -0.2179
    135  N         16.2030   -9.3390   24.9970 N.am  257  TRP257     -0.1959
    136  CA        16.0090  -10.7950   24.9890 C.3   257  TRP257      0.1771
    137  C         15.0410  -11.3900   25.9870 C.2   257  TRP257      0.2620
    138  O         14.6050  -10.8070   26.9660 O.2   257  TRP257     -0.2715
    139  CB        17.3600  -11.4980   25.0430 C.3   257  TRP257      0.0590
    140  CG        18.0510  -11.1960   26.3290 C.ar  257  TRP257      0.0006
    141  CD1       18.8200  -10.0680   26.6140 C.ar  257  TRP257      0.0946
    142  CD2       17.9260  -11.9000   27.5630 C.ar  257  TRP257      0.0152
    143  NE1       19.1380  -10.0270   27.9250 N.ar  257  TRP257     -0.2442
    144  CE2       18.5870  -11.1170   28.5470 C.ar  257  TRP257      0.0810
    145  CE3       17.2680  -13.0840   27.9380 C.ar  257  TRP257      0.0012
    146  CZ2       18.5610  -11.5250   29.8850 C.ar  257  TRP257      0.0191
    147  CZ3       17.2570  -13.4970   29.2850 C.ar  257  TRP257      0.0001
    148  CH2       17.8810  -12.7040   30.2540 C.ar  257  TRP257      0.0015
    149  N         14.7020  -12.6070   25.6790 N.am  258  GLY258     -0.1940
    150  CA        13.8760  -13.3020   26.6400 C.3   258  GLY258      0.2014
    151  C         13.9510  -14.7980   26.4540 C.2   258  GLY258      0.2639
    152  O         14.4690  -15.3200   25.4880 O.2   258  GLY258     -0.2714
    153  N         13.3670  -15.5320   27.3660 N.am  259  GLU259     -0.1963
    154  CA        13.2740  -16.9150   26.8990 C.3   259  GLU259      0.1733
    155  C         11.9170  -17.3790   26.3310 C.2   259  GLU259      0.2617
    156  O         10.9900  -17.7460   27.0580 O.2   259  GLU259     -0.2715
    157  CB        13.7560  -17.8020   28.0270 C.3   259  GLU259      0.0429
    158  CG        15.2410  -17.5960   28.3140 C.3   259  GLU259      0.1163
    159  CD        15.4330  -17.6220   29.8070 C.2   259  GLU259      0.3649
    160  OE1       14.9660  -16.7130   30.4940 O.co2 259  GLU259     -0.2457
    161  OE2       16.0490  -18.5520   30.3070 O.co2 259  GLU259     -0.2457
    162  N         11.8330  -17.3540   24.9840 N.am  260  GLY260     -0.1940
    163  CA        10.5470  -17.6880   24.3370 C.3   260  GLY260      0.2014
    164  C          9.5060  -16.5730   24.3720 C.2   260  GLY260      0.2639
    165  O          9.7590  -15.4700   24.8230 O.2   260  GLY260     -0.2714
    166  N          8.2860  -16.8600   23.9590 N.am  261  CYS261     -0.1967
    167  CA         7.3260  -15.7370   24.0560 C.3   261  CYS261      0.1712
    168  C          6.0450  -15.9360   24.8720 C.2   261  CYS261      0.2296
    169  O          5.3700  -16.9340   24.6810 O.2   261  CYS261     -0.2864
    170  CB         6.9910  -15.2810   22.6400 C.3   261  CYS261      0.0983
    171  SG         8.4450  -15.2890   21.5450 S.3   261  CYS261     -0.0798
    172  N          9.6550  -13.3810   31.6950 N.3   267  TYR267     -0.1227
    173  CA         9.5090  -11.9690   31.4200 C.3   267  TYR267      0.1736
    174  C         10.5710  -11.5140   30.4340 C.2   267  TYR267      0.2596
    175  O         11.5470  -12.2210   30.1920 O.2   267  TYR267     -0.2718
    176  CB         9.7660  -11.2240   32.7040 C.3   267  TYR267      0.0548
    177  CG         8.9850  -11.7790   33.8690 C.ar  267  TYR267     -0.0200
    178  CD1        9.5690  -12.6950   34.7660 C.ar  267  TYR267     -0.0009
    179  CD2        7.7030  -11.2580   34.0670 C.ar  267  TYR267     -0.0009
    180  CE1        8.8970  -13.0270   35.9450 C.ar  267  TYR267      0.0417
    181  CE2        7.0570  -11.5400   35.2620 C.ar  267  TYR267      0.0417
    182  CZ         7.6480  -12.4250   36.1610 C.ar  267  TYR267      0.1957
    183  OH         6.9030  -12.7380   37.2720 O.3   267  TYR267     -0.2866
    184  N         10.3540  -10.3010   29.9360 N.am  268  GLY268     -0.1942
    185  CA        11.1600   -9.8370   28.8120 C.3   268  GLY268      0.2014
    186  C         12.2470   -8.7740   29.0590 C.2   268  GLY268      0.2639
    187  O         12.0960   -7.8800   29.8680 O.2   268  GLY268     -0.2714
    188  N         13.3850   -8.9090   28.3770 N.am  269  PHE269     -0.1959
    189  CA        14.4960   -8.0970   28.8190 C.3   269  PHE269      0.1771
    190  C         14.8980   -7.0520   27.8400 C.2   269  PHE269      0.2619
    191  O         15.1400   -7.2770   26.6620 O.2   269  PHE269     -0.2715
    192  CB        15.6920   -8.9280   29.1230 C.3   269  PHE269      0.0574
    193  CG        15.4590   -9.8280   30.3020 C.ar  269  PHE269     -0.0200
    194  CD1       14.7830  -11.0490   30.1380 C.ar  269  PHE269     -0.0042
    195  CD2       15.9560   -9.4560   31.5570 C.ar  269  PHE269     -0.0042
    196  CE1       14.6270  -11.9260   31.2320 C.ar  269  PHE269     -0.0003
    197  CE2       15.8020  -10.3120   32.6550 C.ar  269  PHE269     -0.0003
    198  CZ        15.1620  -11.5490   32.4730 C.ar  269  PHE269     -0.0000
    199  N         14.9150   -5.8500   28.3640 N.am  270  TYR270     -0.1974
    200  CA        15.2250   -4.7630   27.4630 C.3   270  TYR270      0.1639
    201  C         16.5740   -4.1060   27.8070 C.2   270  TYR270      0.2290
    202  O         16.9960   -4.1150   28.9530 O.2   270  TYR270     -0.2864
    203  CB        14.0600   -3.7630   27.4930 C.3   270  TYR270      0.0560
    204  CG        12.7070   -4.4440   27.4390 C.ar  270  TYR270     -0.0198
    205  CD1       12.0560   -4.9190   28.5970 C.ar  270  TYR270     -0.0009
    206  CD2       12.1210   -4.6090   26.1810 C.ar  270  TYR270     -0.0009
    207  CE1       10.8600   -5.6500   28.4620 C.ar  270  TYR270      0.0417
    208  CE2       10.9370   -5.3390   26.0390 C.ar  270  TYR270      0.0417
    209  CZ        10.3390   -5.8630   27.1770 C.ar  270  TYR270      0.1957
    210  OH         9.2170   -6.6210   27.0060 O.3   270  TYR270     -0.2866
@<TRIPOS>BOND
     1    26    25    2
     2    25    24    1
     3    24    27    1
     4    24    23    1
     5   115   114    2
     6    27    28    1
     7   113   114    1
     8   113   112    1
     9   106   105    2
    10   112   105   am
    11    11    12    1
    12    14    13    2
    13   105   104    1
    14    28    30   ar
    15    28    29   ar
    16    33    30   ar
    17    33    35   ar
    18     4     3    2
    19    13    12    1
    20    30    32   ar
    21    15    12    1
    22    15    16    1
    23    35    36   ar
    24   107   104    1
    25   107   108    1
    26    29    31   ar
    27     3     2    1
    28   119   118    2
    29   104   103    1
    30   108   109    1
    31    32    31   ar
    32    32    34   ar
    33    18    16   ar
    34    18    20   ar
    35    16    17   ar
    36    36    34   ar
    37     2     1    1
    38     2     5    1
    39   116   117    1
    40   118   117    1
    41   120   121    1
    42   120   117    1
    43   103    99   am
    44     8    10   ar
    45     8     6   ar
    46   100    99    2
    47    20    21   ar
    48   109   111   ar
    49   109   110   ar
    50    17    19   ar
    51    10     9   ar
    52     5     6    1
    53    99    98    1
    54     6     7   ar
    55    50    48   ar
    56    50    49   ar
    57    48    46   ar
    58   102   101    1
    59   102   171    1
    60    49    47   ar
    61    21    19   ar
    62    21    22    1
    63     9     7   ar
    64   101    98    1
    65    46    45   ar
    66    46    44   ar
    67    47    44   ar
    68    98    97    1
    69    45    43   ar
    70    44    42   ar
    71    43    42   ar
    72    42    41    1
    73    97    94   am
    74    41    38    1
    75   171   170    1
    76   125   124    2
    77   126   128    1
    78   126   127    1
    79   126   123    1
    80    94    95    2
    81    94    93    1
    82    93    96    1
    83    93    92    1
    84   170   167    1
    85   124   123    1
    86   124   129   am
    87    75    73    1
    88   132   131    2
    89   122   123    1
    90    38    39    1
    91    38    37    1
    92    40    39    2
    93    74    73    1
    94    87    86    2
    95   130   129    1
    96   130   131    1
    97   130   133    1
    98   131   135   am
    99    73    72    1
   100   166   167    1
   101   166   164   am
   102    92    86   am
   103   167   168    1
   104    86    85    1
   105   163   164    1
   106   163   162    1
   107   164   165    2
   108   169   168    2
   109   133   134    1
   110   162   155   am
   111   136   135    1
   112   136   139    1
   113   136   137    1
   114    72    69    1
   115   139   140    1
   116   152   151    2
   117    85    88    1
   118    85    84    1
   119   149   137   am
   120   149   150    1
   121    88    89    1
   122    69    68    1
   123    69    70    1
   124   137   138    2
   125   208   206   ar
   126   208   209   ar
   127   206   204   ar
   128    89    90   ar
   129    89    91   ar
   130    68    62   am
   131   140   141   ar
   132   140   142   ar
   133   155   154    1
   134   155   156    2
   135    51    52    1
   136   151   150    1
   137   151   153   am
   138   141   143   ar
   139    71    70    2
   140   191   190    2
   141   154   153    1
   142   154   157    1
   143   210   209    1
   144   209   207   ar
   145   204   203    1
   146   204   205   ar
   147   200   203    1
   148   200   201    1
   149   200   199    1
   150    62    63    2
   151    62    61    1
   152   142   145   ar
   153   142   144   ar
   154    52    53    1
   155    52    55    1
   156   201   202    2
   157   190   199   am
   158   190   189    1
   159    60    53   am
   160    60    61    1
   161   143   144   ar
   162   145   147   ar
   163    53    54    2
   164   157   158    1
   165    61    64    1
   166   158   159    1
   167   188   189    1
   168   188   186   am
   169   207   205   ar
   170   144   146   ar
   171    55    56    1
   172   185   186    1
   173   185   184    1
   174   189   192    1
   175   186   187    2
   176   192   193    1
   177   147   148   ar
   178    66    65    2
   179   159   161   ar
   180   159   160   ar
   181    64    65    1
   182    83    81    1
   183   146   148   ar
   184   184   174   am
   185    56    57    1
   186   194   193   ar
   187   194   196   ar
   188   175   174    2
   189    65    67   am
   190   193   195   ar
   191   174   173    1
   192    81    80    1
   193    57    58   ar
   194    57    59   ar
   195    82    80    1
   196   196   198   ar
   197   173   172    1
   198   173   176    1
   199   195   197   ar
   200    80    77    1
   201   198   197   ar
   202   176   177    1
   203    77    76    1
   204    77    78    1
   205   177   179   ar
   206   177   178   ar
   207    78    79    2
   208   179   181   ar
   209   178   180   ar
   210   181   182   ar
   211   180   182   ar
   212   182   183    1
