@<TRIPOS>MOLECULE
tmp/1jwvA00.pdb
 119 110 0 0 0
SMALL
GASTEIGER

@<TRIPOS>ATOM
      1  N         10.4980    4.1700   35.0910 N.3    45  SER45      -0.1217
      2  CA         9.1880    4.2700   35.7090 C.3    45  SER45       0.1889
      3  C          8.0350    3.5210   35.0450 C.2    45  SER45       0.2288
      4  O          6.9460    3.4630   35.6110 O.2    45  SER45      -0.2866
      5  CB         8.8210    5.7490   35.8640 C.3    45  SER45       0.2089
      6  OG         9.6540    6.2960   36.8790 O.3    45  SER45      -0.2183
      7  N          6.0700    0.9690   37.0830 N.3    48  LYS48      -0.1245
      8  CA         5.0780    1.3310   38.0900 C.3    48  LYS48       0.1561
      9  C          3.6790    0.8440   37.7270 C.2    48  LYS48       0.2260
     10  O          2.8450    0.6030   38.6090 O.2    48  LYS48      -0.2867
     11  CB         5.1090    2.8600   38.3370 C.3    48  LYS48       0.0271
     12  CG         6.3860    3.2540   39.0570 C.3    48  LYS48       0.0035
     13  CD         6.6470    4.7510   39.0620 C.3    48  LYS48       0.0206
     14  CE         8.0780    5.0020   39.5300 C.3    48  LYS48       0.1093
     15  NZ         8.4910    6.4310   39.4330 N.3    48  LYS48      -0.1314
     16  N         14.5000   10.5790   46.0220 N.3    79  GLU79      -0.1231
     17  CA        14.3830   11.6460   45.0300 C.3    79  GLU79       0.1699
     18  C         13.1250   11.5520   44.1680 C.2    79  GLU79       0.2592
     19  O         12.7630   10.4750   43.6880 O.2    79  GLU79      -0.2718
     20  CB        15.6000   11.6580   44.1190 C.3    79  GLU79       0.0402
     21  CG        15.6630   12.8740   43.2230 C.3    79  GLU79       0.1161
     22  CD        16.0070   14.1360   43.9950 C.2    79  GLU79       0.3649
     23  OE1       15.9030   15.2440   43.4180 O.co2  79  GLU79      -0.2457
     24  OE2       16.3920   14.0150   45.1790 O.co2  79  GLU79      -0.2457
     25  N         12.4990   12.7100   43.9710 N.am   80  TYR80      -0.1976
     26  CA        11.2730   12.8840   43.1840 C.3    80  TYR80       0.1639
     27  C         10.0860   12.1200   43.7790 C.2    80  TYR80       0.2290
     28  O          9.7430   10.9960   43.3600 O.2    80  TYR80      -0.2864
     29  CB        11.4720   12.5040   41.6970 C.3    80  TYR80       0.0560
     30  CG        10.2600   12.8940   40.8590 C.ar   80  TYR80      -0.0198
     31  CD1        9.9150   14.2480   40.6850 C.ar   80  TYR80      -0.0009
     32  CD2        9.3820   11.9250   40.3690 C.ar   80  TYR80      -0.0009
     33  CE1        8.7170   14.6170   40.0630 C.ar   80  TYR80       0.0417
     34  CE2        8.1820   12.2840   39.7430 C.ar   80  TYR80       0.0417
     35  CZ         7.8520   13.6290   39.6020 C.ar   80  TYR80       0.1957
     36  OH         6.6310   13.9820   39.0480 O.3    80  TYR80      -0.2866
     37  N          4.3560    9.5770   38.7620 N.3   105  SER105     -0.1217
     38  CA         5.6210    8.8330   38.7690 C.3   105  SER105      0.1889
     39  C          6.3950    8.9990   40.0820 C.2   105  SER105      0.2288
     40  O          7.6330    8.9200   40.1060 O.2   105  SER105     -0.2866
     41  CB         6.5220    9.2530   37.5940 C.3   105  SER105      0.2089
     42  OG         7.2050    8.1190   37.0510 O.3   105  SER105     -0.2183
     43  N          8.4020    8.4210   43.1630 N.3   107  ASN107     -0.1240
     44  CA         9.3010    7.3040   43.4760 C.3   107  ASN107      0.1653
     45  C          9.1020    6.6810   44.8630 C.2   107  ASN107      0.2266
     46  O          9.1430    5.4600   45.0080 O.2   107  ASN107     -0.2867
     47  CB        10.7650    7.7270   43.2620 C.3   107  ASN107      0.1155
     48  CG        11.1250    7.8270   41.7810 C.2   107  ASN107      0.2627
     49  OD1       10.6650    7.0080   40.9730 O.2   107  ASN107     -0.2716
     50  ND2       11.9630    8.8070   41.4180 N.am  107  ASN107     -0.0877
     51  N         13.7670    2.1650   43.8980 N.3   141  GLU141     -0.1231
     52  CA        14.0380    3.5480   43.5080 C.3   141  GLU141      0.1684
     53  C         15.0470    4.0010   44.5650 C.2   141  GLU141      0.2434
     54  O         14.8370    3.7710   45.7640 O.2   141  GLU141     -0.2733
     55  CB        12.7740    4.3990   43.6200 C.3   141  GLU141      0.0402
     56  CG        11.6510    4.0490   42.6550 C.3   141  GLU141      0.1161
     57  CD        11.9750    4.4590   41.2330 C.2   141  GLU141      0.3649
     58  OE1       13.0360    5.0810   41.0340 O.co2 141  GLU141     -0.2457
     59  OE2       11.1770    4.1710   40.3170 O.co2 141  GLU141     -0.2457
     60  N         16.1120    4.7190   44.1660 N.am  142  PRO142     -0.2729
     61  CA        16.5120    5.1860   42.8360 C.3   142  PRO142      0.1401
     62  C         17.3830    4.3010   41.9550 C.2   142  PRO142      0.2269
     63  O         17.4360    4.5050   40.7400 O.2   142  PRO142     -0.2865
     64  CB        17.2390    6.4830   43.1530 C.3   142  PRO142      0.0296
     65  CG        18.0280    6.0850   44.3790 C.3   142  PRO142      0.0237
     66  CD        16.9920    5.3000   45.2010 C.3   142  PRO142      0.0939
     67  N         17.0600    2.9980   38.1290 N.3   145  ASN145     -0.1240
     68  CA        17.1780    3.9080   36.9870 C.3   145  ASN145      0.1653
     69  C         18.6200    4.0700   36.5180 C.2   145  ASN145      0.2266
     70  O         18.8860    4.9140   35.6660 O.2   145  ASN145     -0.2867
     71  CB        16.6510    5.3110   37.3170 C.3   145  ASN145      0.1155
     72  CG        15.1900    5.3160   37.6990 C.2   145  ASN145      0.2627
     73  OD1       14.3440    4.8100   36.9630 O.2   145  ASN145     -0.2716
     74  ND2       14.8820    5.9010   38.8560 N.am  145  ASN145     -0.0877
     75  N          2.2270   13.5230   34.0020 N.3   191  VAL191     -0.1245
     76  CA         3.5810   13.9260   33.6490 C.3   191  VAL191      0.1561
     77  C          4.0720   13.4300   32.2860 C.2   191  VAL191      0.2260
     78  O          5.2700   13.3140   32.0720 O.2   191  VAL191     -0.2867
     79  CB         4.5690   13.4600   34.7310 C.3   191  VAL191      0.0252
     80  CG1        4.2360   14.1390   36.0790 C.3   191  VAL191      0.0019
     81  CG2        4.4800   11.9430   34.8860 C.3   191  VAL191      0.0019
     82  N         11.8650    8.0060   32.6400 N.3   212  ALA212     -0.1231
     83  CA        13.1080    8.7140   32.3570 C.3   212  ALA212      0.1694
     84  C         14.1620    8.1610   33.3180 C.2   212  ALA212      0.2592
     85  O         13.8630    7.8640   34.4690 O.2   212  ALA212     -0.2718
     86  CB        12.9250   10.2170   32.5790 C.3   212  ALA212      0.0304
     87  N         15.4000    8.0250   32.8690 N.am  213  ALA213     -0.1966
     88  CA        16.4240    7.5080   33.7640 C.3   213  ALA213      0.1728
     89  C         17.7930    8.0040   33.3200 C.2   213  ALA213      0.2616
     90  O         17.8890    8.8680   32.4510 O.2   213  ALA213     -0.2715
     91  CB        16.3790    5.9700   33.7930 C.3   213  ALA213      0.0334
     92  N         18.8480    7.4770   33.9240 N.am  214  GLU214     -0.1977
     93  CA        20.2020    7.9070   33.5720 C.3   214  GLU214      0.1602
     94  C         20.5800    7.5270   32.1360 C.2   214  GLU214      0.2287
     95  O         19.9080    6.7090   31.4920 O.2   214  GLU214     -0.2864
     96  CB        21.2290    7.2840   34.5360 C.3   214  GLU214      0.0415
     97  CG        20.9760    7.5350   36.0250 C.3   214  GLU214      0.1163
     98  CD        21.0520    9.0080   36.4240 C.2   214  GLU214      0.3649
     99  OE1       20.8350    9.3170   37.6160 O.co2 214  GLU214     -0.2457
    100  OE2       21.3260    9.8590   35.5580 O.co2 214  GLU214     -0.2457
    101  N         14.7050    7.0750   28.1630 N.3   218  ARG218     -0.1245
    102  CA        13.3920    7.6990   28.0440 C.3   218  ARG218      0.1563
    103  C         12.4760    6.6560   27.4430 C.2   218  ARG218      0.2260
    104  O         12.9380    5.7730   26.7310 O.2   218  ARG218     -0.2867
    105  CB        13.4580    8.8950   27.0910 C.3   218  ARG218      0.0307
    106  CG        12.2160    9.7950   27.1400 C.3   218  ARG218      0.0489
    107  CD        12.1540   10.5120   28.4870 C.3   218  ARG218      0.2205
    108  NE        11.1840   11.6050   28.5060 N.pl3 218  ARG218     -0.0865
    109  CZ        10.1450   11.6580   29.3280 C.cat 218  ARG218      0.5346
    110  NH1        9.9300   10.6680   30.1840 N.pl3 218  ARG218      0.1354
    111  NH2        9.3630   12.7330   29.3440 N.pl3 218  ARG218      0.1354
    112  N         16.5670   16.3930   27.4060 N.3   245  MET245     -0.1245
    113  CA        15.2420   15.8220   27.6650 C.3   245  MET245      0.1570
    114  C         14.2360   16.3120   26.6210 C.2   245  MET245      0.2261
    115  O         13.3670   15.5510   26.2100 O.2   245  MET245     -0.2867
    116  CB        14.7540   16.1880   29.0740 C.3   245  MET245      0.0387
    117  CG        13.3560   15.5890   29.4680 C.3   245  MET245      0.0595
    118  SD        13.3640   13.7530   29.5190 S.3   245  MET245     -0.1393
    119  CE        14.5240   13.4790   30.7610 C.3   245  MET245      0.0692
@<TRIPOS>BOND
     1   115   114    2
     2   114   113    1
     3   104   103    2
     4   105   106    1
     5   105   102    1
     6   106   107    1
     7   112   113    1
     8   103   102    1
     9   113   116    1
    10   102   101    1
    11   107   108    1
    12   108   109    2
    13   116   117    1
    14   109   111    1
    15   109   110    1
    16   117   118    1
    17   118   119    1
    18    95    94    2
    19    78    77    2
    20    94    93    1
    21    77    76    1
    22    83    86    1
    23    83    82    1
    24    83    84    1
    25    90    89    2
    26    87    84   am
    27    87    88    1
    28    84    85    2
    29    89    88    1
    30    89    92   am
    31    93    92    1
    32    93    96    1
    33    76    75    1
    34    76    79    1
    35    88    91    1
    36    96    97    1
    37    79    81    1
    38    79    80    1
    39     3     4    2
    40     3     2    1
    41     1     2    1
    42   100    98   ar
    43    70    69    2
    44     2     5    1
    45     5     6    1
    46    97    98    1
    47    98    99   ar
    48    69    68    1
    49    73    72    2
    50    68    71    1
    51    68    67    1
    52    42    41    1
    53     7     8    1
    54    71    72    1
    55    41    38    1
    56    72    74   am
    57     9     8    1
    58     9    10    2
    59     8    11    1
    60    11    12    1
    61    37    38    1
    62    38    39    1
    63    36    35    1
    64    12    13    1
    65    13    14    1
    66    15    14    1
    67    35    34   ar
    68    35    33   ar
    69    34    32   ar
    70    33    31   ar
    71    39    40    2
    72    59    57   ar
    73    32    30   ar
    74    31    30   ar
    75    63    62    2
    76    30    29    1
    77    49    48    2
    78    58    57   ar
    79    57    56    1
    80    50    48   am
    81    29    26    1
    82    48    47    1
    83    62    61    1
    84    56    55    1
    85    61    64    1
    86    61    60    1
    87    64    65    1
    88    43    44    1
    89    26    27    1
    90    26    25    1
    91    21    22    1
    92    21    20    1
    93    47    44    1
    94    28    27    2
    95    23    22   ar
    96    44    45    1
    97    52    55    1
    98    52    51    1
    99    52    53    1
   100    19    18    2
   101    25    18   am
   102    22    24   ar
   103    20    17    1
   104    60    53   am
   105    60    66    1
   106    18    17    1
   107    65    66    1
   108    53    54    2
   109    45    46    2
   110    17    16    1
