@<TRIPOS>MOLECULE
tmp/1jwyB01.pdb
 134 129 0 0 0
SMALL
GASTEIGER

@<TRIPOS>ATOM
      1  N       -104.6090  -16.4690   14.3260 N.3    32  SER32      -0.1202
      2  CA      -105.8960  -17.0170   13.9090 C.3    32  SER32       0.2020
      3  C       -105.8770  -17.3790   12.4220 C.2    32  SER32       0.2619
      4  O       -104.9050  -17.1000   11.7190 O.2    32  SER32      -0.2717
      5  CB      -107.0120  -16.0030   14.1880 C.3    32  SER32       0.2103
      6  OG      -106.7200  -14.7430   13.6070 O.3    32  SER32      -0.2182
      7  N       -106.9490  -18.0040   11.9460 N.am   33  GLN33      -0.1965
      8  CA      -107.0440  -18.3910   10.5420 C.3    33  GLN33       0.1733
      9  C       -106.9270  -17.1850    9.6120 C.2    33  GLN33       0.2617
     10  O       -107.5540  -16.1510    9.8420 O.2    33  GLN33      -0.2715
     11  CB      -108.3700  -19.1130   10.2930 C.3    33  GLN33       0.0408
     12  CG      -108.4560  -20.4450   10.9970 C.3    33  GLN33       0.0908
     13  CD      -107.3020  -21.3480   10.6160 C.2    33  GLN33       0.2608
     14  OE1     -107.1640  -21.7430    9.4570 O.2    33  GLN33      -0.2717
     15  NE2     -106.4550  -21.6700   11.5890 N.am   33  GLN33      -0.0878
     16  N       -106.1160  -17.3180    8.5660 N.am   34  SER34      -0.1936
     17  CA      -105.9240  -16.2400    7.6000 C.3    34  SER34       0.2055
     18  C       -105.6160  -14.9110    8.2890 C.2    34  SER34       0.2644
     19  O       -106.4340  -13.9870    8.2860 O.2    34  SER34      -0.2714
     20  CB      -107.1730  -16.0960    6.7310 C.3    34  SER34       0.2130
     21  OG      -107.5110  -17.3360    6.1340 O.3    34  SER34      -0.2179
     22  N       -104.4300  -14.8250    8.8800 N.am   35  SER35      -0.1935
     23  CA      -104.0050  -13.6190    9.5730 C.3    35  SER35       0.2055
     24  C       -102.7220  -13.0800    8.9580 C.2    35  SER35       0.2644
     25  O       -102.4740  -11.8710    8.9690 O.2    35  SER35      -0.2714
     26  CB      -103.7780  -13.9160   11.0530 C.3    35  SER35       0.2130
     27  OG      -102.7770  -14.9050   11.2150 O.3    35  SER35      -0.2179
     28  N       -101.9070  -13.9810    8.4210 N.am   36  GLY36      -0.1939
     29  CA      -100.6630  -13.5580    7.8110 C.3    36  GLY36       0.2014
     30  C        -99.4100  -14.1820    8.3980 C.2    36  GLY36       0.2639
     31  O        -98.3200  -13.6380    8.2370 O.2    36  GLY36      -0.2714
     32  N        -99.5510  -15.3170    9.0750 N.am   37  LYS37      -0.1963
     33  CA       -98.3920  -15.9830    9.6590 C.3    37  LYS37       0.1728
     34  C        -97.4560  -16.4840    8.5640 C.2    37  LYS37       0.2617
     35  O        -96.2940  -16.0860    8.4980 O.2    37  LYS37      -0.2715
     36  CB       -98.8160  -17.1680   10.5440 C.3    37  LYS37       0.0311
     37  CG       -99.5220  -16.7710   11.8330 C.3    37  LYS37       0.0038
     38  CD       -99.3380  -17.8020   12.9630 C.3    37  LYS37       0.0206
     39  CE      -100.0320  -19.1430   12.7010 C.3    37  LYS37       0.1093
     40  NZ       -99.3120  -20.0160   11.7280 N.3    37  LYS37      -0.1314
     41  N        -97.9680  -17.3560    7.7060 N.am   38  SER38      -0.1936
     42  CA       -97.1720  -17.9050    6.6270 C.3    38  SER38       0.2055
     43  C        -96.4700  -16.7960    5.8550 C.2    38  SER38       0.2643
     44  O        -95.2960  -16.9090    5.5130 O.2    38  SER38      -0.2714
     45  CB       -98.0670  -18.7010    5.6790 C.3    38  SER38       0.2130
     46  OG       -98.7500  -19.7210    6.3860 O.3    38  SER38      -0.2179
     47  N        -97.1950  -15.7200    5.5880 N.am   39  SER39      -0.1949
     48  CA       -96.6420  -14.6100    4.8360 C.3    39  SER39       0.1924
     49  C        -95.4650  -13.9690    5.5450 C.2    39  SER39       0.2314
     50  O        -94.3620  -13.8940    4.9950 O.2    39  SER39      -0.2863
     51  CB       -97.7270  -13.5640    4.5760 C.3    39  SER39       0.2116
     52  OG       -98.7340  -14.0930    3.7300 O.3    39  SER39      -0.2180
     53  N       -100.6250   -7.0480   10.6360 N.3   181  THR181     -0.1203
     54  CA      -100.5200   -7.1460    9.1860 C.3   181  THR181      0.1994
     55  C       -101.7250   -6.4700    8.5290 C.2   181  THR181      0.2617
     56  O       -102.5740   -5.8930    9.2110 O.2   181  THR181     -0.2717
     57  CB      -100.4620   -8.6250    8.7220 C.3   181  THR181      0.1784
     58  OG1     -101.7120   -9.2750    8.9950 O.3   181  THR181     -0.2211
     59  CG2      -99.3480   -9.3610    9.4480 C.3   181  THR181      0.0376
     60  N       -101.7910   -6.5490    7.2040 N.am  182  LYS182     -0.1979
     61  CA      -102.8880   -5.9620    6.4460 C.3   182  LYS182      0.1596
     62  C       -103.1420   -4.4930    6.7730 C.2   182  LYS182      0.2287
     63  O       -104.2480   -3.9900    6.5760 O.2   182  LYS182     -0.2864
     64  CB      -104.1690   -6.7640    6.6770 C.3   182  LYS182      0.0298
     65  CG      -104.0930   -8.1900    6.1860 C.3   182  LYS182      0.0038
     66  CD      -105.3970   -8.9230    6.4350 C.3   182  LYS182      0.0206
     67  CE      -105.3630  -10.3150    5.8280 C.3   182  LYS182      0.1093
     68  NZ      -103.9790  -10.7350    5.5170 N.3   182  LYS182     -0.1314
     69  N       -102.5620   -2.2630    5.2040 N.3   184  ASP184     -0.1225
     70  CA      -102.9220   -1.6580    3.9360 C.3   184  ASP184      0.1805
     71  C       -104.3580   -2.0020    3.5540 C.2   184  ASP184      0.2597
     72  O       -104.9600   -1.3370    2.7100 O.2   184  ASP184     -0.2718
     73  CB      -101.9570   -2.1330    2.8420 C.3   184  ASP184      0.1424
     74  CG      -101.9410   -3.6470    2.6880 C.2   184  ASP184      0.3668
     75  OD1     -101.6660   -4.3480    3.6840 O.co2 184  ASP184     -0.2456
     76  OD2     -102.1990   -4.1380    1.5700 O.co2 184  ASP184     -0.2456
     77  N       -104.9110   -3.0340    4.1820 N.am  185  LEU185     -0.1979
     78  CA      -106.2710   -3.4470    3.8730 C.3   185  LEU185      0.1596
     79  C       -107.2910   -3.0960    4.9480 C.2   185  LEU185      0.2287
     80  O       -108.1960   -3.8850    5.2220 O.2   185  LEU185     -0.2864
     81  CB      -106.3170   -4.9540    3.6120 C.3   185  LEU185      0.0297
     82  CG      -105.4860   -5.4940    2.4500 C.3   185  LEU185      0.0022
     83  CD1     -105.8480   -6.9570    2.2300 C.3   185  LEU185      0.0001
     84  CD2     -105.7610   -4.6880    1.1850 C.3   185  LEU185      0.0001
     85  N        -96.7940   -5.5810    6.1710 N.3   211  ILE211     -0.1231
     86  CA       -97.6960   -5.8300    5.0540 C.3   211  ILE211      0.1692
     87  C        -97.0390   -6.8260    4.1130 C.2   211  ILE211      0.2592
     88  O        -95.9100   -6.6200    3.6630 O.2   211  ILE211     -0.2718
     89  CB       -98.0130   -4.5400    4.2710 C.3   211  ILE211      0.0266
     90  CG1      -96.7210   -3.9070    3.7600 C.3   211  ILE211      0.0019
     91  CG2      -98.7670   -3.5600    5.1650 C.3   211  ILE211      0.0020
     92  CD1      -96.9430   -2.8280    2.7260 C.3   211  ILE211      0.0001
     93  N        -97.7520   -7.9090    3.8270 N.am  212  ASN212     -0.1960
     94  CA       -97.2440   -8.9610    2.9570 C.3   212  ASN212      0.1819
     95  C        -97.9500   -8.9490    1.6070 C.2   212  ASN212      0.2621
     96  O        -98.8440   -8.1400    1.3670 O.2   212  ASN212     -0.2715
     97  CB       -97.4540  -10.3240    3.6190 C.3   212  ASN212      0.1195
     98  CG       -97.3450  -10.2600    5.1310 C.2   212  ASN212      0.2630
     99  OD1      -98.2790  -10.6310    5.8480 O.2   212  ASN212     -0.2716
    100  ND2      -96.2070   -9.7840    5.6240 N.am  212  ASN212     -0.0877
    101  N        -97.5380   -9.8650    0.7360 N.am  213  ARG213     -0.1963
    102  CA       -98.1170   -9.9990   -0.5960 C.3   213  ARG213      0.1729
    103  C        -99.5990  -10.3550   -0.4890 C.2   213  ARG213      0.2617
    104  O       -100.0010  -11.1050    0.4000 O.2   213  ARG213     -0.2715
    105  CB       -97.4010  -11.1070   -1.3690 C.3   213  ARG213      0.0348
    106  CG       -95.8970  -10.9840   -1.4070 C.3   213  ARG213      0.0492
    107  CD       -95.2960  -12.0940   -2.2440 C.3   213  ARG213      0.2205
    108  NE       -95.5730  -13.4190   -1.6930 N.pl3 213  ARG213     -0.0865
    109  CZ       -95.2700  -14.5630   -2.3050 C.cat 213  ARG213      0.5346
    110  NH1      -94.6830  -14.5460   -3.4940 N.pl3 213  ARG213      0.1354
    111  NH2      -95.5430  -15.7260   -1.7260 N.pl3 213  ARG213      0.1354
    112  N       -100.4050   -9.8160   -1.3970 N.am  214  SER214     -0.1936
    113  CA      -101.8350  -10.1040   -1.4110 C.3   214  SER214      0.2055
    114  C       -102.0350  -11.3650   -2.2420 C.2   214  SER214      0.2642
    115  O       -101.0910  -11.8530   -2.8660 O.2   214  SER214     -0.2714
    116  CB      -102.6110   -8.9410   -2.0350 C.3   214  SER214      0.2130
    117  OG      -102.1690   -8.6830   -3.3560 O.3   214  SER214     -0.2179
    118  N       -103.2540  -11.8930   -2.2570 N.am  215  GLN215     -0.1976
    119  CA      -103.5240  -13.1000   -3.0270 C.3   215  GLN215      0.1601
    120  C       -103.2120  -12.8610   -4.4990 C.2   215  GLN215      0.2287
    121  O       -102.6800  -13.7380   -5.1800 O.2   215  GLN215     -0.2864
    122  CB      -104.9850  -13.5290   -2.8700 C.3   215  GLN215      0.0394
    123  CG      -105.2970  -14.8690   -3.5300 C.3   215  GLN215      0.0908
    124  CD      -104.4790  -16.0120   -2.9480 C.2   215  GLN215      0.2608
    125  OE1     -104.6980  -16.4360   -1.8100 O.2   215  GLN215     -0.2717
    126  NE2     -103.5250  -16.5120   -3.7260 N.am  215  GLN215     -0.0878
    127  N        -99.4290  -12.8630   -5.1260 N.3   218  ILE218     -0.1245
    128  CA       -98.8590  -14.2030   -5.2010 C.3   218  ILE218      0.1561
    129  C        -98.9440  -14.6490   -6.6580 C.2   218  ILE218      0.2260
    130  O        -98.0650  -15.3510   -7.1600 O.2   218  ILE218     -0.2867
    131  CB       -99.6390  -15.2040   -4.3130 C.3   218  ILE218      0.0252
    132  CG1      -99.5520  -14.7830   -2.8440 C.3   218  ILE218      0.0019
    133  CG2      -99.0710  -16.6090   -4.4900 C.3   218  ILE218      0.0019
    134  CD1     -100.3600  -15.6580   -1.9070 C.3   218  ILE218      0.0001
@<TRIPOS>BOND
     1   130   129    2
     2   129   128    1
     3   128   127    1
     4   128   131    1
     5   121   120    2
     6   120   119    1
     7   133   131    1
     8   131   132    1
     9   126   124   am
    10   123   124    1
    11   123   122    1
    12   110   109    1
    13   117   116    1
    14   119   122    1
    15   119   118    1
    16   124   125    2
    17   115   114    2
    18   132   134    1
    19   109   111    1
    20   109   108    2
    21   118   114   am
    22   107   108    1
    23   107   106    1
    24   114   113    1
    25   116   113    1
    26   113   112    1
    27   106   105    1
    28   112   103   am
    29   105   102    1
    30   102   103    1
    31   102   101    1
    32   103   104    2
    33   101    95   am
    34    84    82    1
    35    96    95    2
    36    76    74   ar
    37    95    94    1
    38    83    82    1
    39    82    81    1
    40    74    73    1
    41    74    75   ar
    42    72    71    2
    43    92    90    1
    44    73    70    1
    45    94    97    1
    46    94    93    1
    47    71    70    1
    48    71    77   am
    49    81    78    1
    50    97    98    1
    51    88    87    2
    52    52    51    1
    53    90    89    1
    54    93    87   am
    55    78    77    1
    56    78    79    1
    57    70    69    1
    58    87    86    1
    59    89    86    1
    60    89    91    1
    61    51    48    1
    62    48    49    1
    63    48    47    1
    64    79    80    2
    65    50    49    2
    66    86    85    1
    67    98   100   am
    68    98    99    2
    69    44    43    2
    70    68    67    1
    71    47    43   am
    72    45    46    1
    73    45    42    1
    74    67    66    1
    75    43    42    1
    76    21    20    1
    77    65    66    1
    78    65    64    1
    79    61    64    1
    80    61    62    1
    81    61    60    1
    82    63    62    2
    83    42    41    1
    84    20    17    1
    85    60    55   am
    86    17    18    1
    87    17    16    1
    88    41    34   am
    89    29    30    1
    90    29    28    1
    91    31    30    2
    92    19    18    2
    93    18    22   am
    94    30    32   am
    95    28    24   am
    96    35    34    2
    97    55    54    1
    98    55    56    2
    99    34    33    1
   100    16     9   am
   101    57    58    1
   102    57    54    1
   103    57    59    1
   104    22    23    1
   105    24    25    2
   106    24    23    1
   107    32    33    1
   108    54    53    1
   109    14    13    2
   110    23    26    1
   111     9    10    2
   112     9     8    1
   113    33    36    1
   114    11     8    1
   115    11    12    1
   116     8     7    1
   117    36    37    1
   118    13    12    1
   119    13    15   am
   120    26    27    1
   121     4     3    2
   122    40    39    1
   123    37    38    1
   124     7     3   am
   125     3     2    1
   126    39    38    1
   127     6     5    1
   128     2     5    1
   129     2     1    1
