@<TRIPOS>MOLECULE
tmp/1jwyB00.pdb
 80 73 0 0 0
SMALL
GASTEIGER

@<TRIPOS>ATOM
      1  N        -73.3650  -16.5580   20.3040 N.3     2  GLN2       -0.1231
      2  CA       -73.7450  -17.8360   19.7210 C.3     2  GLN2        0.1698
      3  C        -74.6010  -18.6560   20.6700 C.2     2  GLN2        0.2592
      4  O        -74.4100  -19.8610   20.8030 O.2     2  GLN2       -0.2718
      5  CB       -72.5020  -18.6350   19.3330 C.3     2  GLN2        0.0381
      6  CG       -71.7640  -18.0890   18.1180 C.3     2  GLN2        0.0905
      7  CD       -70.6370  -19.0030   17.6630 C.2     2  GLN2        0.2608
      8  OE1      -69.6430  -19.1870   18.3710 O.2     2  GLN2       -0.2717
      9  NE2      -70.7920  -19.5880   16.4800 N.am    2  GLN2       -0.0878
     10  N        -75.5430  -17.9900   21.3310 N.am    3  LEU3       -0.1980
     11  CA       -76.4490  -18.6410   22.2640 C.3     3  LEU3        0.1596
     12  C        -77.5710  -19.3660   21.5230 C.2     3  LEU3        0.2287
     13  O        -78.0220  -20.4260   21.9470 O.2     3  LEU3       -0.2864
     14  CB       -77.0590  -17.6070   23.2040 C.3     3  LEU3        0.0297
     15  CG       -76.0760  -16.8310   24.0840 C.3     3  LEU3        0.0022
     16  CD1      -76.7890  -15.6800   24.7810 C.3     3  LEU3        0.0001
     17  CD2      -75.4480  -17.7750   25.0790 C.3     3  LEU3        0.0001
     18  N        -76.6890  -22.8850   20.2820 N.3     6  VAL6       -0.1231
     19  CA       -76.6070  -23.8020   21.4030 C.3     6  VAL6        0.1692
     20  C        -77.9860  -24.3090   21.7680 C.2     6  VAL6        0.2591
     21  O        -78.1750  -25.5060   21.9500 O.2     6  VAL6       -0.2718
     22  CB       -75.9690  -23.1250   22.6310 C.3     6  VAL6        0.0266
     23  CG1      -76.1420  -23.9880   23.8600 C.3     6  VAL6        0.0020
     24  CG2      -74.4770  -22.8830   22.3660 C.3     6  VAL6        0.0020
     25  N        -78.9520  -23.3990   21.8690 N.am    7  ILE7       -0.1980
     26  CA       -80.3220  -23.7730   22.2200 C.3     7  ILE7        0.1595
     27  C        -80.8980  -24.6200   21.1060 C.2     7  ILE7        0.2287
     28  O        -81.7400  -25.4900   21.3340 O.2     7  ILE7       -0.2864
     29  CB       -81.2120  -22.5280   22.4160 C.3     7  ILE7        0.0276
     30  CG1      -80.6650  -21.6930   23.5690 C.3     7  ILE7        0.0022
     31  CG2      -82.6760  -22.9430   22.7080 C.3     7  ILE7        0.0022
     32  CD1      -80.5980  -22.4370   24.8850 C.3     7  ILE7        0.0001
     33  N        -79.8460  -28.3210   21.5500 N.3    10  LEU10      -0.1245
     34  CA       -80.6590  -28.9360   22.5940 C.3    10  LEU10       0.1561
     35  C        -82.0780  -29.1920   22.0790 C.2    10  LEU10       0.2260
     36  O        -82.7180  -30.1790   22.4450 O.2    10  LEU10      -0.2867
     37  CB       -80.6970  -28.0420   23.8450 C.3    10  LEU10       0.0270
     38  CG       -79.3510  -27.7490   24.5300 C.3    10  LEU10       0.0019
     39  CD1      -79.5060  -26.5980   25.5080 C.3    10  LEU10       0.0001
     40  CD2      -78.8370  -28.9980   25.2460 C.3    10  LEU10       0.0001
     41  N        -80.4740  -18.5290   30.6840 N.3   269  LEU269     -0.1245
     42  CA       -79.2500  -19.3090   30.7600 C.3   269  LEU269      0.1561
     43  C        -78.9830  -19.9400   32.1310 C.2   269  LEU269      0.2260
     44  O        -78.7240  -21.1360   32.2210 O.2   269  LEU269     -0.2867
     45  CB       -78.0700  -18.4350   30.3330 C.3   269  LEU269      0.0270
     46  CG       -76.8540  -19.1200   29.7050 C.3   269  LEU269      0.0019
     47  CD1      -77.2800  -19.9450   28.5000 C.3   269  LEU269      0.0001
     48  CD2      -75.8310  -18.0620   29.2940 C.3   269  LEU269      0.0001
     49  N        -81.8220  -22.6420   32.9430 N.3   272  LEU272     -0.1231
     50  CA       -81.6880  -23.7470   32.0110 C.3   272  LEU272      0.1693
     51  C        -80.5280  -24.6790   32.3580 C.2   272  LEU272      0.2591
     52  O        -80.6160  -25.8820   32.1240 O.2   272  LEU272     -0.2718
     53  CB       -81.5160  -23.2250   30.5770 C.3   272  LEU272      0.0284
     54  CG       -81.2500  -24.2920   29.5100 C.3   272  LEU272      0.0019
     55  CD1      -82.4090  -25.2970   29.4730 C.3   272  LEU272      0.0001
     56  CD2      -81.0750  -23.6320   28.1480 C.3   272  LEU272      0.0001
     57  N        -79.4500  -24.1340   32.9170 N.am  273  LYS273     -0.1980
     58  CA       -78.2930  -24.9560   33.2690 C.3   273  LYS273      0.1596
     59  C        -78.5780  -25.8630   34.4560 C.2   273  LYS273      0.2287
     60  O        -77.9390  -26.9020   34.6230 O.2   273  LYS273     -0.2864
     61  CB       -77.0710  -24.0820   33.5670 C.3   273  LYS273      0.0298
     62  CG       -76.5590  -23.3300   32.3570 C.3   273  LYS273      0.0038
     63  CD       -75.1270  -22.8480   32.5310 C.3   273  LYS273      0.0206
     64  CE       -74.9890  -21.8200   33.6430 C.3   273  LYS273      0.1093
     65  NZ       -75.7860  -20.5750   33.3930 N.3   273  LYS273     -0.1314
     66  N        -80.8490  -28.7900   32.7430 N.3   276  VAL276     -0.1245
     67  CA       -80.0140  -29.6910   31.9590 C.3   276  VAL276      0.1561
     68  C        -79.2160  -30.6490   32.8300 C.2   276  VAL276      0.2260
     69  O        -79.1800  -31.8510   32.5730 O.2   276  VAL276     -0.2867
     70  CB       -79.0520  -28.8980   31.0490 C.3   276  VAL276      0.0252
     71  CG1      -78.0220  -29.8150   30.4390 C.3   276  VAL276      0.0019
     72  CG2      -79.8410  -28.2160   29.9470 C.3   276  VAL276      0.0019
     73  N        -79.7770  -34.9540   33.0970 N.3   280  LEU280     -0.1245
     74  CA       -78.7240  -35.9040   32.7450 C.3   280  LEU280      0.1561
     75  C        -78.2130  -36.6730   33.9590 C.2   280  LEU280      0.2260
     76  O        -77.0480  -37.0820   34.0030 O.2   280  LEU280     -0.2867
     77  CB       -77.5640  -35.1720   32.0740 C.3   280  LEU280      0.0270
     78  CG       -77.9390  -34.3840   30.8190 C.3   280  LEU280      0.0019
     79  CD1      -76.7260  -33.6040   30.3400 C.3   280  LEU280      0.0001
     80  CD2      -78.4400  -35.3240   29.7360 C.3   280  LEU280      0.0001
@<TRIPOS>BOND
     1     9     7   am
     2     7     6    1
     3     7     8    2
     4     6     5    1
     5     5     2    1
     6     2     1    1
     7     2     3    1
     8    18    19    1
     9     3     4    2
    10     3    10   am
    11    27    28    2
    12    27    26    1
    13    10    11    1
    14    19    20    1
    15    19    22    1
    16    12    13    2
    17    12    11    1
    18    33    34    1
    19    20    25   am
    20    20    21    2
    21    25    26    1
    22    35    36    2
    23    35    34    1
    24    26    29    1
    25    11    14    1
    26    24    22    1
    27    29    31    1
    28    29    30    1
    29    34    37    1
    30    22    23    1
    31    14    15    1
    32    30    32    1
    33    37    38    1
    34    15    16    1
    35    15    17    1
    36    38    40    1
    37    38    39    1
    38    56    54    1
    39    47    46    1
    40    48    46    1
    41    55    54    1
    42    54    53    1
    43    46    45    1
    44    80    78    1
    45    72    70    1
    46    45    42    1
    47    79    78    1
    48    71    70    1
    49    53    50    1
    50    41    42    1
    51    42    43    1
    52    78    77    1
    53    70    67    1
    54    67    66    1
    55    67    68    1
    56    50    51    1
    57    50    49    1
    58    77    74    1
    59    52    51    2
    60    43    44    2
    61    62    63    1
    62    62    61    1
    63    51    57   am
    64    63    64    1
    65    69    68    2
    66    74    73    1
    67    74    75    1
    68    57    58    1
    69    58    61    1
    70    58    59    1
    71    65    64    1
    72    75    76    2
    73    59    60    2
