@<TRIPOS>MOLECULE
tmp/1jwyA01.pdb
 100 94 0 0 0
SMALL
GASTEIGER

@<TRIPOS>ATOM
      1  N        -54.5750  -76.0250   52.4930 N.3   461  TYR461     -0.1241
      2  CA       -55.3730  -77.0290   51.8220 C.3   461  TYR461      0.1605
      3  C        -56.8590  -76.6370   51.9730 C.2   461  TYR461      0.2264
      4  O        -57.6400  -76.7530   51.0380 O.2   461  TYR461     -0.2867
      5  CB       -55.0940  -78.3840   52.4680 C.3   461  TYR461      0.0534
      6  CG       -56.0800  -79.4450   52.1390 C.ar  461  TYR461     -0.0201
      7  CD1      -56.4900  -79.6630   50.8320 C.ar  461  TYR461     -0.0009
      8  CD2      -56.5890  -80.2630   53.1450 C.ar  461  TYR461     -0.0009
      9  CE1      -57.3830  -80.6750   50.5300 C.ar  461  TYR461      0.0417
     10  CE2      -57.4750  -81.2740   52.8650 C.ar  461  TYR461      0.0417
     11  CZ       -57.8730  -81.4840   51.5560 C.ar  461  TYR461      0.1957
     12  OH       -58.7400  -82.5220   51.2800 O.3   461  TYR461     -0.2866
     13  N        -59.7840  -75.3830   48.9180 N.3   465  LYS465     -0.1245
     14  CA       -61.1680  -75.8370   48.8230 C.3   465  LYS465      0.1561
     15  C        -62.1340  -74.6550   48.8720 C.2   465  LYS465      0.2260
     16  O        -63.0550  -74.5840   48.0900 O.2   465  LYS465     -0.2867
     17  CB       -61.5030  -76.7840   49.9750 C.3   465  LYS465      0.0271
     18  CG       -60.9000  -78.1650   49.8620 C.3   465  LYS465      0.0035
     19  CD       -61.7250  -79.0220   48.9280 C.3   465  LYS465      0.0206
     20  CE       -61.5580  -80.4910   49.2400 C.3   465  LYS465      0.1093
     21  NZ       -62.3060  -81.2950   48.2170 N.3   465  LYS465     -0.1314
     22  N        -58.0540  -77.8790   41.0800 N.3   499  GLN499     -0.1245
     23  CA       -58.1720  -79.3110   41.3270 C.3   499  GLN499      0.1566
     24  C        -56.8280  -80.0350   41.3540 C.2   499  GLN499      0.2260
     25  O        -56.6760  -81.0480   42.0350 O.2   499  GLN499     -0.2867
     26  CB       -59.0680  -79.9580   40.2680 C.3   499  GLN499      0.0367
     27  CG       -59.5420  -81.3590   40.6090 C.3   499  GLN499      0.0905
     28  CD       -60.4000  -81.3900   41.8700 C.2   499  GLN499      0.2608
     29  OE1      -61.3680  -80.6360   41.9940 O.2   499  GLN499     -0.2717
     30  NE2      -60.0480  -82.2670   42.8110 N.am  499  GLN499     -0.0878
     31  N        -55.2300  -79.4200   44.8610 N.3   502  ILE502     -0.1231
     32  CA       -55.9960  -80.2070   45.8210 C.3   502  ILE502      0.1692
     33  C        -55.5950  -81.6900   45.7130 C.2   502  ILE502      0.2592
     34  O        -55.2420  -82.3090   46.7090 O.2   502  ILE502     -0.2718
     35  CB       -57.5160  -80.0150   45.5690 C.3   502  ILE502      0.0266
     36  CG1      -57.9180  -78.6080   46.0230 C.3   502  ILE502      0.0019
     37  CG2      -58.3220  -81.1010   46.2930 C.3   502  ILE502      0.0020
     38  CD1      -59.2450  -78.1160   45.4970 C.3   502  ILE502      0.0001
     39  N        -55.6400  -82.2410   44.5010 N.am  503  ASP503     -0.1974
     40  CA       -55.2600  -83.6380   44.2860 C.3   503  ASP503      0.1709
     41  C        -53.8240  -83.9050   44.7300 C.2   503  ASP503      0.2293
     42  O        -53.5570  -84.9430   45.3270 O.2   503  ASP503     -0.2864
     43  CB       -55.4000  -84.0200   42.8010 C.3   503  ASP503      0.1436
     44  CG       -56.8600  -84.1670   42.3510 C.2   503  ASP503      0.3671
     45  OD1      -57.0690  -84.3910   41.1350 O.co2 503  ASP503     -0.2456
     46  OD2      -57.7860  -84.0640   43.1950 O.co2 503  ASP503     -0.2456
     47  N        -54.5800  -83.9880   48.7310 N.3   506  ASP506     -0.1225
     48  CA       -55.4310  -85.0510   49.2650 C.3   506  ASP506      0.1805
     49  C        -55.7510  -86.1840   48.3000 C.2   506  ASP506      0.2598
     50  O        -56.6500  -86.9840   48.5590 O.2   506  ASP506     -0.2718
     51  CB       -56.7530  -84.4630   49.7940 C.3   506  ASP506      0.1424
     52  CG       -57.7150  -84.0340   48.6770 C.2   506  ASP506      0.3668
     53  OD1      -57.4890  -84.3540   47.4920 O.co2 506  ASP506     -0.2456
     54  OD2      -58.7270  -83.3800   48.9980 O.co2 506  ASP506     -0.2456
     55  N        -55.0190  -86.2460   47.1940 N.am  507  GLY507     -0.1942
     56  CA       -55.2570  -87.2920   46.2170 C.3   507  GLY507      0.2014
     57  C        -55.0690  -88.6790   46.7950 C.2   507  GLY507      0.2638
     58  O        -54.1170  -88.9270   47.5290 O.2   507  GLY507     -0.2714
     59  N        -55.9890  -89.5810   46.4640 N.am  508  ARG508     -0.1977
     60  CA       -55.9370  -90.9580   46.9360 C.3   508  ARG508      0.1597
     61  C        -55.3050  -91.9080   45.9180 C.2   508  ARG508      0.2287
     62  O        -54.1620  -92.3140   46.0920 O.2   508  ARG508     -0.2864
     63  CB       -57.3400  -91.4460   47.2920 C.3   508  ARG508      0.0334
     64  CG       -57.6710  -91.3880   48.7700 C.3   508  ARG508      0.0492
     65  CD       -59.1830  -91.4630   49.0050 C.3   508  ARG508      0.2205
     66  NE       -59.8100  -92.6710   48.4660 N.pl3 508  ARG508     -0.0865
     67  CZ       -59.5930  -93.9040   48.9200 C.cat 508  ARG508      0.5346
     68  NH1      -58.7540  -94.1070   49.9280 N.pl3 508  ARG508      0.1354
     69  NH2      -60.2350  -94.9340   48.3760 N.pl3 508  ARG508      0.1354
     70  N        -58.8420  -84.2390   56.9230 N.3   623  LYS623     -0.1231
     71  CA       -59.3410  -84.3760   55.5540 C.3   623  LYS623      0.1693
     72  C        -60.8460  -84.6710   55.6200 C.2   623  LYS623      0.2591
     73  O        -61.6330  -84.1150   54.8620 O.2   623  LYS623     -0.2718
     74  CB       -58.6090  -85.5140   54.8450 C.3   623  LYS623      0.0285
     75  CG       -59.0460  -85.7570   53.4060 C.3   623  LYS623      0.0035
     76  CD       -58.3080  -86.9670   52.8170 C.3   623  LYS623      0.0206
     77  CE       -58.7920  -87.3060   51.4240 C.3   623  LYS623      0.1093
     78  NZ       -58.1710  -88.5560   50.9310 N.3   623  LYS623     -0.1314
     79  N        -61.2320  -85.5390   56.5490 N.am  624  GLU624     -0.1979
     80  CA       -62.6340  -85.8960   56.7210 C.3   624  GLU624      0.1602
     81  C        -63.4330  -84.7300   57.3160 C.2   624  GLU624      0.2287
     82  O        -64.5550  -84.4690   56.8840 O.2   624  GLU624     -0.2864
     83  CB       -62.7500  -87.1400   57.6220 C.3   624  GLU624      0.0415
     84  CG       -64.1850  -87.4950   58.0180 C.3   624  GLU624      0.1163
     85  CD       -64.3130  -88.9010   58.6270 C.2   624  GLU624      0.3649
     86  OE1      -63.5610  -89.2340   59.5750 O.co2 624  GLU624     -0.2457
     87  OE2      -65.1760  -89.6760   58.1510 O.co2 624  GLU624     -0.2457
     88  N        -62.8400  -81.6110   57.0130 N.3   626  LEU626     -0.1231
     89  CA       -62.9400  -80.6020   55.9660 C.3   626  LEU626      0.1693
     90  C        -63.9630  -81.0390   54.9210 C.2   626  LEU626      0.2591
     91  O        -64.8050  -80.2310   54.5020 O.2   626  LEU626     -0.2718
     92  CB       -61.5620  -80.3610   55.3090 C.3   626  LEU626      0.0284
     93  CG       -61.5500  -79.4310   54.0840 C.3   626  LEU626      0.0019
     94  CD1      -62.1630  -78.0740   54.4390 C.3   626  LEU626      0.0001
     95  CD2      -60.1100  -79.2930   53.5740 C.3   626  LEU626      0.0001
     96  N        -63.9200  -82.3110   54.5210 N.am  627  ALA627     -0.1980
     97  CA       -64.8770  -82.8180   53.5220 C.3   627  ALA627      0.1597
     98  C        -66.3040  -82.6390   54.0370 C.2   627  ALA627      0.2287
     99  O        -67.2250  -82.3280   53.2850 O.2   627  ALA627     -0.2864
    100  CB       -64.6090  -84.3130   53.2210 C.3   627  ALA627      0.0319
@<TRIPOS>BOND
     1    26    27    1
     2    26    23    1
     3    27    28    1
     4    22    23    1
     5    45    44   ar
     6    23    24    1
     7    24    25    2
     8    28    29    2
     9    28    30   am
    10    44    43    1
    11    44    46   ar
    12    43    40    1
    13    40    39    1
    14    40    41    1
    15    39    33   am
    16    41    42    2
    17    31    32    1
    18    38    36    1
    19    35    32    1
    20    35    36    1
    21    35    37    1
    22    33    32    1
    23    33    34    2
    24    61    62    2
    25    61    60    1
    26    56    57    1
    27    56    55    1
    28    59    57   am
    29    59    60    1
    30    57    58    2
    31    60    63    1
    32    55    49   am
    33    63    64    1
    34    53    52   ar
    35    16    15    2
    36    21    20    1
    37    49    50    2
    38    49    48    1
    39    69    67    1
    40    66    67    2
    41    66    65    1
    42    52    54   ar
    43    52    51    1
    44    47    48    1
    45    64    65    1
    46    14    15    1
    47    14    13    1
    48    14    17    1
    49    67    68    1
    50    19    20    1
    51    19    18    1
    52    48    51    1
    53    18    17    1
    54     9     7   ar
    55     9    11   ar
    56     7     6   ar
    57    78    77    1
    58     4     3    2
    59    12    11    1
    60    77    76    1
    61    11    10   ar
    62     2     3    1
    63     2     5    1
    64     2     1    1
    65     6     5    1
    66     6     8   ar
    67    76    75    1
    68    10     8   ar
    69   100    97    1
    70    99    98    2
    71    75    74    1
    72    97    98    1
    73    97    96    1
    74    95    93    1
    75    93    94    1
    76    93    92    1
    77    91    90    2
    78    96    90   am
    79    74    71    1
    80    73    72    2
    81    90    89    1
    82    92    89    1
    83    71    72    1
    84    71    70    1
    85    72    79   am
    86    89    88    1
    87    79    80    1
    88    80    81    1
    89    80    83    1
    90    82    81    2
    91    83    84    1
    92    84    85    1
    93    87    85   ar
    94    85    86   ar
