@<TRIPOS>MOLECULE
tmp/1jwzA00.pdb
 102 95 0 0 0
SMALL
GASTEIGER

@<TRIPOS>ATOM
      1  N         24.2140   -2.5740   31.9170 N.3    44  MET44      -0.1230
      2  CA        23.8290   -1.3030   32.5270 C.3    44  MET44       0.1702
      3  C         22.6140   -1.5790   33.4370 C.2    44  MET44       0.2593
      4  O         22.5380   -2.6530   34.0430 O.2    44  MET44      -0.2718
      5  CB        23.5230   -0.2290   31.4730 C.3    44  MET44       0.0401
      6  CG        24.7030    0.1220   30.5260 C.3    44  MET44       0.0596
      7  SD        26.3650    0.2200   31.2850 S.3    44  MET44      -0.1393
      8  CE        26.0670    1.3580   32.6630 C.3    44  MET44       0.0692
      9  N         21.6620   -0.6520   33.5260 N.am   45  SER45      -0.1952
     10  CA        20.5130   -0.8410   34.4270 C.3    45  SER45       0.1924
     11  C         19.5630   -2.0180   34.1590 C.2    45  SER45       0.2314
     12  O         18.6860   -2.3100   34.9860 O.2    45  SER45      -0.2863
     13  CB        19.7110    0.4620   34.4980 C.3    45  SER45       0.2116
     14  OG        20.4380    1.4000   35.2760 O.3    45  SER45      -0.2180
     15  N         18.8240   -4.5440   36.8880 N.3    48  LYS48      -0.1245
     16  CA        17.9170   -4.3460   38.0170 C.3    48  LYS48       0.1561
     17  C         16.6940   -5.2720   38.0350 C.2    48  LYS48       0.2260
     18  O         16.1290   -5.5630   39.0990 O.2    48  LYS48      -0.2867
     19  CB        17.5310   -2.8610   38.1120 C.3    48  LYS48       0.0271
     20  CG        18.7270   -2.0070   38.5730 C.3    48  LYS48       0.0035
     21  CD        18.5970   -0.5160   38.1930 C.3    48  LYS48       0.0206
     22  CE        19.8480    0.2610   38.5820 C.3    48  LYS48       0.1093
     23  NZ        19.8680    1.5880   37.8950 N.3    48  LYS48      -0.1314
     24  N         21.5830    9.3410   40.4490 N.3    80  TYR80      -0.1241
     25  CA        20.4430    8.7050   39.7640 C.3    80  TYR80       0.1605
     26  C         19.5650    7.9150   40.7390 C.2    80  TYR80       0.2264
     27  O         19.1980    6.7600   40.4790 O.2    80  TYR80      -0.2867
     28  CB        20.9070    7.7570   38.6490 C.3    80  TYR80       0.0534
     29  CG        22.0730    8.2420   37.8020 C.ar   80  TYR80      -0.0201
     30  CD1       22.9380    7.3200   37.2080 C.ar   80  TYR80      -0.0009
     31  CD2       22.3360    9.6050   37.6190 C.ar   80  TYR80      -0.0009
     32  CE1       24.0440    7.7270   36.4620 C.ar   80  TYR80       0.0417
     33  CE2       23.4520   10.0300   36.8620 C.ar   80  TYR80       0.0417
     34  CZ        24.3000    9.0770   36.2940 C.ar   80  TYR80       0.1957
     35  OH        25.4260    9.4530   35.5790 O.3    80  TYR80      -0.2866
     36  N         14.7250    3.2820   37.6400 N.3   105  SER105     -0.1217
     37  CA        16.1320    2.8900   37.5380 C.3   105  SER105      0.1889
     38  C         16.9550    3.4520   38.7100 C.2   105  SER105      0.2288
     39  O         18.1460    3.7540   38.5750 O.2   105  SER105     -0.2866
     40  CB        16.7280    3.3570   36.2060 C.3   105  SER105      0.2089
     41  OG        17.6460    2.3870   35.7230 O.3   105  SER105     -0.2183
     42  N         19.3480    4.0090   41.4320 N.3   107  ASN107     -0.1240
     43  CA        20.6120    3.3540   41.7740 C.3   107  ASN107      0.1653
     44  C         20.7670    2.9110   43.2300 C.2   107  ASN107      0.2266
     45  O         21.1940    1.7930   43.5040 O.2   107  ASN107     -0.2867
     46  CB        21.8070    4.2460   41.4100 C.3   107  ASN107      0.1155
     47  CG        22.2310    4.1090   39.9480 C.2   107  ASN107      0.2627
     48  OD1       21.8390    3.1720   39.2530 O.2   107  ASN107     -0.2716
     49  ND2       23.0560    5.0480   39.4860 N.am  107  ASN107     -0.0877
     50  N         26.2850    0.0350   41.8210 N.3   141  GLU141     -0.1231
     51  CA        26.0010    1.2760   41.0940 C.3   141  GLU141      0.1684
     52  C         26.7340    2.3760   41.8730 C.2   141  GLU141      0.2434
     53  O         26.9180    2.2660   43.0840 O.2   141  GLU141     -0.2733
     54  CB        24.4950    1.5720   41.0710 C.3   141  GLU141      0.0402
     55  CG        23.6990    0.7220   40.0680 C.3   141  GLU141      0.1161
     56  CD        23.8610    1.1640   38.6080 C.2   141  GLU141      0.3649
     57  OE1       24.7500    1.9960   38.3070 O.co2 141  GLU141     -0.2457
     58  OE2       23.0940    0.6690   37.7440 O.co2 141  GLU141     -0.2457
     59  N         27.1660    3.4490   41.1920 N.am  142  PRO142     -0.2729
     60  CA        27.0380    3.7400   39.7560 C.3   142  PRO142      0.1401
     61  C         28.3400    3.4230   39.0160 C.2   142  PRO142      0.2269
     62  O         28.7930    4.2110   38.1880 O.2   142  PRO142     -0.2865
     63  CB        26.7530    5.2320   39.7650 C.3   142  PRO142      0.0296
     64  CG        27.7460    5.7130   40.8260 C.3   142  PRO142      0.0237
     65  CD        27.6000    4.6530   41.9300 C.3   142  PRO142      0.0939
     66  N         21.3130    2.5310   30.3990 N.3   212  ALA212     -0.1231
     67  CA        22.0950    3.5540   29.7090 C.3   212  ALA212      0.1694
     68  C         23.4900    3.5250   30.3040 C.2   212  ALA212      0.2593
     69  O         23.6450    3.2900   31.4930 O.2   212  ALA212     -0.2718
     70  CB        21.4710    4.9190   29.9120 C.3   212  ALA212      0.0304
     71  N         24.4970    3.7470   29.4670 N.am  213  GLY213     -0.1942
     72  CA        25.8670    3.7650   29.9410 C.3   213  GLY213      0.2014
     73  C         26.4460    5.1610   29.8300 C.2   213  GLY213      0.2638
     74  O         26.0010    5.9540   29.0020 O.2   213  GLY213     -0.2714
     75  N         27.4310    5.4640   30.6680 N.am  214  GLU214     -0.1977
     76  CA        28.0690    6.7750   30.6590 C.3   214  GLU214      0.1602
     77  C         28.7230    7.0130   29.3040 C.2   214  GLU214      0.2287
     78  O         28.7640    8.1340   28.8220 O.2   214  GLU214     -0.2864
     79  CB        29.1420    6.8570   31.7580 C.3   214  GLU214      0.0415
     80  CG        28.6350    6.6340   33.1860 C.3   214  GLU214      0.1163
     81  CD        27.8560    7.8250   33.7570 C.2   214  GLU214      0.3649
     82  OE1       27.2730    7.6770   34.8590 O.co2 214  GLU214     -0.2457
     83  OE2       27.8280    8.9020   33.1150 O.co2 214  GLU214     -0.2457
     84  N         23.2640    1.8480   25.2610 N.3   218  ARG218     -0.1245
     85  CA        21.8320    1.9780   25.5490 C.3   218  ARG218      0.1563
     86  C         21.2500    0.5860   25.3900 C.2   218  ARG218      0.2260
     87  O         21.7480   -0.2040   24.5910 O.2   218  ARG218     -0.2867
     88  CB        21.1910    2.9160   24.5210 C.3   218  ARG218      0.0307
     89  CG        19.7990    3.4140   24.8530 C.3   218  ARG218      0.0489
     90  CD        19.8910    4.4890   25.9260 C.3   218  ARG218      0.2205
     91  NE        18.6390    5.2150   26.0910 N.pl3 218  ARG218     -0.0865
     92  CZ        17.8860    5.1870   27.1860 C.cat 218  ARG218      0.5346
     93  NH1       18.2380    4.4520   28.2510 N.pl3 218  ARG218      0.1354
     94  NH2       16.7880    5.9270   27.2240 N.pl3 218  ARG218      0.1354
     95  N         22.0490   11.0830   22.7690 N.3   245  MET245     -0.1245
     96  CA        21.0240   10.2740   23.4190 C.3   245  MET245      0.1570
     97  C         19.7520   10.2620   22.5570 C.2   245  MET245      0.2261
     98  O         19.0970    9.2280   22.4090 O.2   245  MET245     -0.2867
     99  CB        20.6980   10.8680   24.7910 C.3   245  MET245      0.0387
    100  CG        19.5530   10.1930   25.5210 C.3   245  MET245      0.0595
    101  SD        19.9420    8.4970   25.9490 S.3   245  MET245     -0.1393
    102  CE        21.1280    8.7360   27.2490 C.3   245  MET245      0.0692
@<TRIPOS>BOND
     1    98    97    2
     2    97    96    1
     3    95    96    1
     4    96    99    1
     5    88    89    1
     6    88    85    1
     7    87    86    2
     8    99   100    1
     9    89    90    1
    10    84    85    1
    11    86    85    1
    12   100   101    1
    13    90    91    1
    14   101   102    1
    15    91    92    2
    16    92    94    1
    17    92    93    1
    18    78    77    2
    19    74    73    2
    20    77    76    1
    21    71    72    1
    22    71    68   am
    23    67    70    1
    24    67    68    1
    25    67    66    1
    26    73    72    1
    27    73    75   am
    28    68    69    2
    29     6     7    1
    30     6     5    1
    31    76    75    1
    32    76    79    1
    33     7     8    1
    34     5     2    1
    35    79    80    1
    36     1     2    1
    37     2     3    1
    38    83    81   ar
    39    80    81    1
    40     3     9   am
    41     3     4    2
    42     9    10    1
    43    81    82   ar
    44    11    10    1
    45    11    12    2
    46    10    13    1
    47    13    14    1
    48    35    34    1
    49    41    40    1
    50    40    37    1
    51    34    32   ar
    52    34    33   ar
    53    32    30   ar
    54    33    31   ar
    55    15    16    1
    56    30    29   ar
    57    37    36    1
    58    37    38    1
    59    31    29   ar
    60    58    56   ar
    61    29    28    1
    62    23    22    1
    63    16    17    1
    64    16    19    1
    65    17    18    2
    66    19    20    1
    67    62    61    2
    68    21    20    1
    69    21    22    1
    70    57    56   ar
    71    39    38    2
    72    56    55    1
    73    28    25    1
    74    61    60    1
    75    48    47    2
    76    49    47   am
    77    60    63    1
    78    60    59    1
    79    25    24    1
    80    25    26    1
    81    63    64    1
    82    47    46    1
    83    55    54    1
    84    27    26    2
    85    64    65    1
    86    54    51    1
    87    51    50    1
    88    51    52    1
    89    59    52   am
    90    59    65    1
    91    46    43    1
    92    42    43    1
    93    43    44    1
    94    52    53    2
    95    44    45    2
