@<TRIPOS>MOLECULE
tmp/1jx0A00.pdb
 139 131 0 0 0
SMALL
GASTEIGER

@<TRIPOS>ATOM
      1  N         23.0650   26.2400   36.2090 N.3    33  ARG33      -0.1231
      2  CA        24.4900   25.9410   36.2190 C.3    33  ARG33       0.1694
      3  C         25.1120   26.6810   35.0500 C.2    33  ARG33       0.2593
      4  O         24.4370   26.9680   34.0570 O.2    33  ARG33      -0.2718
      5  CB        24.7060   24.4300   36.0660 C.3    33  ARG33       0.0321
      6  CG        26.0300   23.8860   36.5810 C.3    33  ARG33       0.0489
      7  CD        25.8420   23.0910   37.8770 C.3    33  ARG33       0.2205
      8  NE        26.9110   22.1100   38.0800 N.pl3  33  ARG33      -0.0865
      9  CZ        27.1930   21.5280   39.2450 C.cat  33  ARG33       0.5346
     10  NH1       26.4850   21.8230   40.3360 N.pl3  33  ARG33       0.1354
     11  NH2       28.2010   20.6640   39.3250 N.pl3  33  ARG33       0.1354
     12  N         26.3960   26.9940   35.1770 N.am   34  GLY34      -0.1942
     13  CA        27.0800   27.7080   34.1210 C.3    34  GLY34       0.2014
     14  C         28.5740   27.7880   34.3270 C.2    34  GLY34       0.2638
     15  O         29.1680   26.9420   34.9960 O.2    34  GLY34      -0.2714
     16  N         29.1880   28.8150   33.7530 N.am   35  LEU35      -0.1977
     17  CA        30.6270   28.9780   33.8670 C.3    35  LEU35       0.1596
     18  C         31.0450   30.2780   34.5150 C.2    35  LEU35       0.2287
     19  O         30.3470   31.2840   34.4430 O.2    35  LEU35      -0.2864
     20  CB        31.2900   28.8820   32.4870 C.3    35  LEU35       0.0297
     21  CG        31.5970   27.4980   31.8870 C.3    35  LEU35       0.0022
     22  CD1       32.0460   27.6580   30.4300 C.3    35  LEU35       0.0001
     23  CD2       32.6860   26.7880   32.7020 C.3    35  LEU35       0.0001
     24  N         24.5550   28.8880   31.6410 N.3    44  PHE44      -0.1227
     25  CA        24.3080   28.2130   30.3850 C.3    44  PHE44       0.1736
     26  C         23.0950   27.3000   30.3570 C.2    44  PHE44       0.2596
     27  O         22.4640   27.1610   29.3120 O.2    44  PHE44      -0.2718
     28  CB        25.5310   27.4030   29.9820 C.3    44  PHE44       0.0547
     29  CG        26.6660   28.2320   29.4740 C.ar   44  PHE44      -0.0202
     30  CD1       27.4250   29.0150   30.3400 C.ar   44  PHE44      -0.0042
     31  CD2       26.9950   28.2130   28.1240 C.ar   44  PHE44      -0.0042
     32  CE1       28.5020   29.7650   29.8600 C.ar   44  PHE44      -0.0003
     33  CE2       28.0680   28.9570   27.6370 C.ar   44  PHE44      -0.0003
     34  CZ        28.8210   29.7320   28.5050 C.ar   44  PHE44      -0.0000
     35  N         22.7700   26.6660   31.4810 N.am   45  THR45      -0.1953
     36  CA        21.6290   25.7540   31.5060 C.3    45  THR45       0.1897
     37  C         20.9020   25.7620   32.8260 C.2    45  THR45       0.2313
     38  O         21.5130   25.9260   33.8760 O.2    45  THR45      -0.2863
     39  CB        22.0590   24.2980   31.2410 C.3    45  THR45       0.1794
     40  OG1       20.9090   23.4410   31.2680 O.3    45  THR45      -0.2208
     41  CG2       23.0240   23.8400   32.3040 C.3    45  THR45       0.0378
     42  N         18.4630   23.8280   35.6250 N.3    47  ILE47      -0.1245
     43  CA        18.4460   22.4670   36.1120 C.3    47  ILE47       0.1561
     44  C         17.3990   22.1840   37.1720 C.2    47  ILE47       0.2260
     45  O         17.3680   22.8140   38.2210 O.2    47  ILE47      -0.2867
     46  CB        19.7900   22.0810   36.6900 C.3    47  ILE47       0.0252
     47  CG1       20.8630   22.1960   35.6120 C.3    47  ILE47       0.0019
     48  CG2       19.6990   20.6800   37.2770 C.3    47  ILE47       0.0019
     49  CD1       22.2570   21.8590   36.1110 C.3    47  ILE47       0.0001
     50  N         17.6310   19.2390   32.2100 N.3    92  GLY92      -0.1225
     51  CA        18.4520   20.4150   32.0040 C.3    92  GLY92       0.1811
     52  C         17.9620   21.0870   30.7500 C.2    92  GLY92       0.2280
     53  O         17.9460   20.4780   29.6840 O.2    92  GLY92      -0.2866
     54  N         24.5030   25.1370   23.2780 N.3    98  LEU98      -0.1245
     55  CA        25.6880   24.3070   23.4240 C.3    98  LEU98       0.1561
     56  C         25.4280   23.0490   22.6100 C.2    98  LEU98       0.2260
     57  O         24.2860   22.5790   22.5420 O.2    98  LEU98      -0.2867
     58  CB        25.8950   23.9220   24.8850 C.3    98  LEU98       0.0270
     59  CG        26.2070   25.0410   25.8700 C.3    98  LEU98       0.0019
     60  CD1       26.1230   24.5240   27.2810 C.3    98  LEU98       0.0001
     61  CD2       27.5870   25.5670   25.5850 C.3    98  LEU98       0.0001
     62  N         30.1360   19.6900   23.1880 N.3   102  GLU102     -0.1231
     63  CA        30.5910   20.8470   23.9630 C.3   102  GLU102      0.1699
     64  C         30.1240   20.7180   25.4100 C.2   102  GLU102      0.2592
     65  O         30.8790   20.9580   26.3620 O.2   102  GLU102     -0.2718
     66  CB        30.0380   22.1390   23.3690 C.3   102  GLU102      0.0402
     67  CG        30.7510   22.6170   22.1310 C.3   102  GLU102      0.1161
     68  CD        30.1930   23.9280   21.6280 C.2   102  GLU102      0.3649
     69  OE1       30.6410   24.3800   20.5590 O.co2 102  GLU102     -0.2457
     70  OE2       29.3100   24.5070   22.2980 O.co2 102  GLU102     -0.2457
     71  N         28.8640   20.3220   25.5490 N.am  103  PHE103     -0.1976
     72  CA        28.2210   20.1310   26.8380 C.3   103  PHE103      0.1639
     73  C         28.5670   18.7840   27.4910 C.2   103  PHE103      0.2290
     74  O         29.0790   18.7400   28.6090 O.2   103  PHE103     -0.2864
     75  CB        26.7110   20.2360   26.6580 C.3   103  PHE103      0.0560
     76  CG        25.9330   19.7530   27.8340 C.ar  103  PHE103     -0.0200
     77  CD1       25.8540   20.5160   28.9880 C.ar  103  PHE103     -0.0042
     78  CD2       25.2730   18.5330   27.7910 C.ar  103  PHE103     -0.0042
     79  CE1       25.1250   20.0810   30.0930 C.ar  103  PHE103     -0.0003
     80  CE2       24.5400   18.0830   28.8890 C.ar  103  PHE103     -0.0003
     81  CZ        24.4660   18.8650   30.0460 C.ar  103  PHE103     -0.0000
     82  N         31.7680   18.8730   29.7590 N.3   106  LYS106     -0.1231
     83  CA        31.8470   19.4110   31.1110 C.3   106  LYS106      0.1693
     84  C         31.2150   18.4200   32.0410 C.2   106  LYS106      0.2591
     85  O         31.7530   18.1400   33.1010 O.2   106  LYS106     -0.2718
     86  CB        31.1170   20.7430   31.2140 C.3   106  LYS106      0.0285
     87  CG        31.7110   21.8260   30.3350 C.3   106  LYS106      0.0035
     88  CD        33.0720   22.2880   30.8190 C.3   106  LYS106      0.0206
     89  CE        33.6300   23.3480   29.8830 C.3   106  LYS106      0.1093
     90  NZ        34.9410   23.8290   30.3760 N.3   106  LYS106     -0.1314
     91  N         30.0750   17.8750   31.6290 N.am  107  VAL107     -0.1980
     92  CA        29.3520   16.8810   32.4260 C.3   107  VAL107      0.1595
     93  C         30.2060   15.6320   32.6900 C.2   107  VAL107      0.2287
     94  O         30.5040   15.3050   33.8420 O.2   107  VAL107     -0.2864
     95  CB        28.0370   16.4660   31.7210 C.3   107  VAL107      0.0276
     96  CG1       27.2940   15.4510   32.5710 C.3   107  VAL107      0.0022
     97  CG2       27.1730   17.6980   31.4770 C.3   107  VAL107      0.0022
     98  N         33.1140   16.2370   35.4840 N.3   110  ASN110     -0.1240
     99  CA        32.8560   16.1460   36.9210 C.3   110  ASN110      0.1653
    100  C         32.4450   14.7340   37.3080 C.2   110  ASN110      0.2266
    101  O         32.4680   14.3690   38.4850 O.2   110  ASN110     -0.2867
    102  CB        31.7000   17.0600   37.3500 C.3   110  ASN110      0.1155
    103  CG        31.8640   18.4820   36.8860 C.2   110  ASN110      0.2627
    104  OD1       32.5060   18.7350   35.8690 O.2   110  ASN110     -0.2716
    105  ND2       31.2580   19.4280   37.6150 N.am  110  ASN110     -0.0877
    106  N         17.6160   13.0660   32.1830 N.3   149  TYR149     -0.1241
    107  CA        18.3040   11.9380   32.8040 C.3   149  TYR149      0.1605
    108  C         17.3510   11.1980   33.7370 C.2   149  TYR149      0.2264
    109  O         16.7740   11.7820   34.6620 O.2   149  TYR149     -0.2867
    110  CB        19.4760   12.3790   33.6910 C.3   149  TYR149      0.0534
    111  CG        20.5460   13.2590   33.0250 C.ar  149  TYR149     -0.0201
    112  CD1       20.4680   14.6500   33.1410 C.ar  149  TYR149     -0.0009
    113  CD2       21.6180   12.6800   32.3230 C.ar  149  TYR149     -0.0009
    114  CE1       21.4660   15.4600   32.5910 C.ar  149  TYR149      0.0417
    115  CE2       22.6230   13.4930   31.7810 C.ar  149  TYR149      0.0417
    116  CZ        22.5490   14.8830   31.9210 C.ar  149  TYR149      0.1957
    117  OH        23.5340   15.6740   31.4140 O.3   149  TYR149     -0.2866
    118  N         25.8250   11.7780   37.7770 N.3   184  VAL184     -0.1245
    119  CA        25.1970   13.0570   37.4490 C.3   184  VAL184      0.1561
    120  C         24.6140   13.7950   38.6520 C.2   184  VAL184      0.2260
    121  O         25.0490   14.8870   39.0090 O.2   184  VAL184     -0.2867
    122  CB        24.0780   12.8370   36.4400 C.3   184  VAL184      0.0252
    123  CG1       23.3470   14.1330   36.1780 C.3   184  VAL184      0.0019
    124  CG2       24.6560   12.2700   35.1780 C.3   184  VAL184      0.0019
    125  N         27.0790   14.8270   41.1880 N.3   187  THR187     -0.1203
    126  CA        27.8750   15.9740   40.7680 C.3   187  THR187      0.1994
    127  C         27.1050   17.2890   40.9120 C.2   187  THR187      0.2617
    128  O         27.6680   18.3790   40.7200 O.2   187  THR187     -0.2717
    129  CB        28.3120   15.8440   39.2820 C.3   187  THR187      0.1784
    130  OG1       27.1760   16.0410   38.4310 O.3   187  THR187     -0.2211
    131  CG2       28.8940   14.4680   39.0000 C.3   187  THR187      0.0376
    132  N         25.8270   17.1920   41.2680 N.am  188  MET188     -0.1979
    133  CA        25.0020   18.3850   41.3770 C.3   188  MET188      0.1605
    134  C         24.5180   18.7360   42.7580 C.2   188  MET188      0.2287
    135  O         24.3490   19.9230   43.0940 O.2   188  MET188     -0.2864
    136  CB        23.8170   18.2390   40.4570 C.3   188  MET188      0.0413
    137  CG        24.2580   17.9420   39.0550 C.3   188  MET188      0.0598
    138  SD        22.8870   18.0340   37.9350 S.3   188  MET188     -0.1393
    139  CE        22.0510   16.5410   38.3360 C.3   188  MET188      0.0692
@<TRIPOS>BOND
     1    69    68   ar
     2    68    67    1
     3    68    70   ar
     4    67    66    1
     5    57    56    2
     6    56    55    1
     7    62    63    1
     8    54    55    1
     9    66    63    1
    10    55    58    1
    11    63    64    1
    12    58    59    1
    13    64    71   am
    14    64    65    2
    15    71    72    1
    16    61    59    1
    17    59    60    1
    18    75    72    1
    19    75    76    1
    20    72    73    1
    21    73    74    2
    22    33    31   ar
    23    33    34   ar
    24    78    76   ar
    25    78    80   ar
    26    76    77   ar
    27    31    29   ar
    28    34    32   ar
    29    80    81   ar
    30    77    79   ar
    31    27    26    2
    32    29    28    1
    33    29    30   ar
    34    53    52    2
    35    82    83    1
    36    32    30   ar
    37    89    90    1
    38    89    88    1
    39    28    25    1
    40    81    79   ar
    41    87    88    1
    42    87    86    1
    43    26    25    1
    44    26    35   am
    45    25    24    1
    46    22    21    1
    47    52    51    1
    48    83    86    1
    49    83    84    1
    50    39    40    1
    51    39    36    1
    52    39    41    1
    53   117   116    1
    54    97    95    1
    55    35    36    1
    56    36    37    1
    57    91    84   am
    58    91    92    1
    59    95    92    1
    60    95    96    1
    61   115   116   ar
    62   115   113   ar
    63    21    20    1
    64    21    23    1
    65   116   114   ar
    66    51    50    1
    67    84    85    2
    68   106   107    1
    69   113   111   ar
    70    92    93    1
    71    20    17    1
    72   114   112   ar
    73    93    94    2
    74   107   110    1
    75   107   108    1
    76    37    38    2
    77   111   112   ar
    78   111   110    1
    79   108   109    2
    80    16    17    1
    81    16    14   am
    82    17    18    1
    83     4     3    2
    84    13    14    1
    85    13    12    1
    86    14    15    2
    87    19    18    2
    88     3    12   am
    89     3     2    1
    90   124   122    1
    91    98    99    1
    92    47    49    1
    93    47    46    1
    94    42    43    1
    95   104   103    2
    96     5     2    1
    97     5     6    1
    98    43    46    1
    99    43    44    1
   100   123   122    1
   101     1     2    1
   102   122   119    1
   103     6     7    1
   104    46    48    1
   105   103   102    1
   106   103   105   am
   107    99   100    1
   108    99   102    1
   109    44    45    2
   110   100   101    2
   111   119   118    1
   112   119   120    1
   113     7     8    1
   114   138   139    1
   115   138   137    1
   116     8     9    2
   117   130   129    1
   118   120   121    2
   119   131   129    1
   120   137   136    1
   121     9    11    1
   122     9    10    1
   123   129   126    1
   124   136   133    1
   125   128   127    2
   126   126   127    1
   127   126   125    1
   128   127   132   am
   129   132   133    1
   130   133   134    1
   131   134   135    2
