@<TRIPOS>MOLECULE
tmp/1jxiA00.pdb
 95 85 0 0 0
SMALL
GASTEIGER

@<TRIPOS>ATOM
      1  N         26.0430   43.9500   76.0720 N.3    10  ALA10      -0.1231
      2  CA        25.7150   44.9960   75.1030 C.3    10  ALA10       0.1694
      3  C         25.0370   44.5430   73.8150 C.2    10  ALA10       0.2593
      4  O         24.6390   43.3900   73.6700 O.2    10  ALA10      -0.2718
      5  CB        26.9880   45.7720   74.7530 C.3    10  ALA10       0.0304
      6  N         24.9110   45.4820   72.8840 N.am   11  GLY11      -0.1942
      7  CA        24.3040   45.1860   71.6030 C.3    11  GLY11       0.2014
      8  C         25.3280   44.6710   70.6030 C.2    11  GLY11       0.2639
      9  O         26.5280   44.6440   70.8800 O.2    11  GLY11      -0.2714
     10  N         24.8540   44.2890   69.4230 N.am   12  THR12      -0.1950
     11  CA        25.7250   43.7550   68.3910 C.3    12  THR12       0.1897
     12  C         25.9050   44.6620   67.1800 C.2    12  THR12       0.2313
     13  O         25.0340   45.4510   66.8380 O.2    12  THR12      -0.2863
     14  CB        25.1810   42.4300   67.8820 C.3    12  THR12       0.1794
     15  OG1       23.8570   42.6430   67.3730 O.3    12  THR12      -0.2208
     16  CG2       25.1430   41.3910   69.0020 C.3    12  THR12       0.0378
     17  N         31.7100   48.2340   66.3790 N.3    18  ALA18      -0.1231
     18  CA        31.1770   48.6580   67.6720 C.3    18  ALA18       0.1694
     19  C         30.5160   47.4740   68.3490 C.2    18  ALA18       0.2592
     20  O         30.7150   46.3340   67.9340 O.2    18  ALA18      -0.2718
     21  CB        30.1660   49.7830   67.4780 C.3    18  ALA18       0.0304
     22  N         29.7370   47.7470   69.3910 N.am   19  GLY19      -0.1957
     23  CA        29.0430   46.6850   70.0990 C.3    19  GLY19       0.1869
     24  C         29.9470   45.6830   70.7790 C.2    19  GLY19       0.2309
     25  O         31.1040   45.9800   71.0730 O.2    19  GLY19      -0.2863
     26  N         21.3670   44.2220   66.1640 N.3    42  VAL42      -0.1245
     27  CA        21.0870   45.3320   65.2820 C.3    42  VAL42       0.1561
     28  C         21.7970   45.1480   63.9660 C.2    42  VAL42       0.2260
     29  O         22.9680   44.8080   63.9310 O.2    42  VAL42      -0.2867
     30  CB        21.4450   46.7180   65.9370 C.3    42  VAL42       0.0252
     31  CG1       22.2310   46.5160   67.2080 C.3    42  VAL42       0.0019
     32  CG2       22.2040   47.5930   64.9630 C.3    42  VAL42       0.0019
     33  N         23.4790   46.6950   61.8150 N.3    44  GLU44      -0.1245
     34  CA        24.2000   47.9430   61.8070 C.3    44  GLU44       0.1567
     35  C         25.1760   47.9740   60.6560 C.2    44  GLU44       0.2260
     36  O         25.3850   46.9750   59.9790 O.2    44  GLU44      -0.2867
     37  CB        24.9450   48.0840   63.1140 C.3    44  GLU44       0.0388
     38  CG        25.0420   49.4740   63.5900 C.3    44  GLU44       0.1160
     39  CD        25.8050   49.5220   64.8500 C.2    44  GLU44       0.3649
     40  OE1       25.5900   48.6160   65.6860 O.co2  44  GLU44      -0.2457
     41  OE2       26.6080   50.4590   64.9990 O.co2  44  GLU44      -0.2457
     42  N         22.7110   52.6410   61.1850 N.3    49  VAL49      -0.1245
     43  CA        21.8320   51.5500   61.5770 C.3    49  VAL49       0.1561
     44  C         20.7310   51.2850   60.5620 C.2    49  VAL49       0.2260
     45  O         20.0060   52.2010   60.1850 O.2    49  VAL49      -0.2867
     46  CB        21.1490   51.8760   62.9200 C.3    49  VAL49       0.0252
     47  CG1       20.1370   50.7830   63.2720 C.3    49  VAL49       0.0019
     48  CG2       22.1980   52.0390   64.0080 C.3    49  VAL49       0.0019
     49  N         27.1890   48.1470   77.6600 N.3    79  GLY79      -0.1210
     50  CA        26.9040   49.0200   76.5390 C.3    79  GLY79       0.1956
     51  C         25.4080   49.2400   76.4160 C.2    79  GLY79       0.2611
     52  O         24.7370   49.5900   77.4000 O.2    79  GLY79      -0.2717
     53  N         24.8830   49.0310   75.2090 N.am   80  MET80      -0.1979
     54  CA        23.4600   49.1900   74.9340 C.3    80  MET80       0.1605
     55  C         22.6140   48.3450   75.8920 C.2    80  MET80       0.2287
     56  O         22.8310   47.1400   76.0270 O.2    80  MET80      -0.2864
     57  CB        23.1670   48.7780   73.4880 C.3    80  MET80       0.0413
     58  CG        21.7130   48.9210   73.0590 C.3    80  MET80       0.0598
     59  SD        21.4040   48.2730   71.3920 S.3    80  MET80      -0.1393
     60  CE        22.0360   49.5910   70.3860 C.3    80  MET80       0.0692
     61  N         29.2340   52.4400   79.9470 N.3   105  ASP105     -0.1239
     62  CA        29.2910   53.4620   78.9140 C.3   105  ASP105      0.1674
     63  C         27.8400   53.9210   78.8640 C.2   105  ASP105      0.2266
     64  O         26.9470   53.1980   79.3080 O.2   105  ASP105     -0.2867
     65  CB        29.7140   52.8650   77.5620 C.3   105  ASP105      0.1410
     66  CG        29.8880   53.9270   76.4720 C.2   105  ASP105      0.3668
     67  OD1       29.8370   55.1370   76.7750 O.co2 105  ASP105     -0.2456
     68  OD2       30.0900   53.5520   75.3010 O.co2 105  ASP105     -0.2456
     69  N         25.1290   54.5270   76.4400 N.3   107  VAL107     -0.1245
     70  CA        24.5550   54.4040   75.1080 C.3   107  VAL107      0.1561
     71  C         23.0930   54.8240   75.1300 C.2   107  VAL107      0.2260
     72  O         22.1960   53.9820   75.1200 O.2   107  VAL107     -0.2867
     73  CB        24.6460   52.9530   74.6050 C.3   107  VAL107      0.0252
     74  CG1       24.1070   52.8610   73.1910 C.3   107  VAL107      0.0019
     75  CG2       26.0870   52.4740   74.6670 C.3   107  VAL107      0.0019
     76  N         22.4510   57.3670   69.5050 N.3   110  ALA110     -0.1231
     77  CA        22.6790   56.4530   68.3840 C.3   110  ALA110      0.1694
     78  C         23.7240   56.9730   67.4020 C.2   110  ALA110      0.2591
     79  O         23.8380   58.1790   67.1780 O.2   110  ALA110     -0.2718
     80  CB        21.3640   56.1840   67.6470 C.3   110  ALA110      0.0304
     81  N         24.4850   56.0540   66.8180 N.am  111  LYS111     -0.1980
     82  CA        25.5130   56.4220   65.8540 C.3   111  LYS111      0.1596
     83  C         24.8850   57.2740   64.7490 C.2   111  LYS111      0.2287
     84  O         25.2900   58.4180   64.5250 O.2   111  LYS111     -0.2864
     85  CB        26.1490   55.1630   65.2630 C.3   111  LYS111      0.0298
     86  CG        26.7930   54.2540   66.2910 C.3   111  LYS111      0.0038
     87  CD        27.8810   55.0850   66.9640 C.3   111  LYS111      0.0206
     88  CE        29.1860   54.3020   67.0130 C.3   111  LYS111      0.1093
     89  NZ        29.9270   54.7390   68.2300 N.3   111  LYS111     -0.1314
     90  N         32.6250   52.5270   72.5320 N.3   201  CYS201     -0.1235
     91  CA        32.5620   51.1520   73.0060 C.3   201  CYS201      0.1677
     92  C         33.9810   50.6900   73.3280 C.2   201  CYS201      0.2270
     93  O         34.2350   50.0740   74.3590 O.2   201  CYS201     -0.2867
     94  CB        31.9830   50.2190   71.9270 C.3   201  CYS201      0.0956
     95  SG        30.2770   50.5170   71.4020 S.3   201  CYS201     -0.0801
@<TRIPOS>BOND
     1    36    35    2
     2    45    44    2
     3    44    43    1
     4    35    34    1
     5    42    43    1
     6    43    46    1
     7    34    33    1
     8    34    37    1
     9    46    47    1
    10    46    48    1
    11    37    38    1
    12    38    39    1
    13    29    28    2
    14    28    27    1
    15    84    83    2
    16    83    82    1
    17    39    41   ar
    18    39    40   ar
    19    32    30    1
    20    85    82    1
    21    85    86    1
    22    27    30    1
    23    27    26    1
    24    82    81    1
    25    30    31    1
    26    86    87    1
    27    17    18    1
    28    81    78   am
    29    13    12    2
    30    87    88    1
    31    88    89    1
    32    79    78    2
    33    12    11    1
    34    15    14    1
    35    78    77    1
    36    21    18    1
    37    80    77    1
    38    18    19    1
    39    14    11    1
    40    14    16    1
    41    20    19    2
    42    19    22   am
    43    77    76    1
    44    11    10    1
    45    22    23    1
    46    10     8   am
    47    23    24    1
    48    60    59    1
    49     8     9    2
    50     8     7    1
    51    24    25    2
    52    59    58    1
    53    95    94    1
    54     7     6    1
    55    94    91    1
    56    90    91    1
    57     6     3   am
    58    91    92    1
    59    58    57    1
    60    74    73    1
    61    92    93    2
    62    57    54    1
    63     4     3    2
    64     3     2    1
    65    73    75    1
    66    73    70    1
    67     5     2    1
    68    54    53    1
    69    54    55    1
    70     2     1    1
    71    70    71    1
    72    70    69    1
    73    72    71    2
    74    53    51   am
    75    68    66   ar
    76    55    56    2
    77    51    50    1
    78    51    52    2
    79    66    67   ar
    80    66    65    1
    81    50    49    1
    82    65    62    1
    83    63    62    1
    84    63    64    2
    85    62    61    1
