@<TRIPOS>MOLECULE
tmp/1jxlC00.pdb
 162 156 0 0 0
SMALL
GASTEIGER

@<TRIPOS>ATOM
      1  N         16.4810    9.7050   17.0180 N.3     7  ASP7       -0.1225
      2  CA        17.8990    9.9330   17.1920 C.3     7  ASP7        0.1805
      3  C         18.5040    8.7010   17.8770 C.2     7  ASP7        0.2597
      4  O         18.2180    8.4340   19.0600 O.2     7  ASP7       -0.2718
      5  CB        18.1010   11.1530   18.0840 C.3     7  ASP7        0.1424
      6  CG        19.5530   11.5650   18.1980 C.2     7  ASP7        0.3668
      7  OD1       20.4410   10.7100   18.4860 O.co2   7  ASP7       -0.2456
      8  OD2       19.8010   12.7750   18.0380 O.co2   7  ASP7       -0.2456
      9  N         19.3550    7.9540   17.1740 N.am    8  PHE8       -0.1976
     10  CA        19.8880    6.7390   17.8110 C.3     8  PHE8        0.1639
     11  C         20.8470    7.0500   18.9760 C.2     8  PHE8        0.2290
     12  O         21.7470    7.8320   18.8200 O.2     8  PHE8       -0.2864
     13  CB        20.6220    5.8790   16.7680 C.3     8  PHE8        0.0560
     14  CG        19.9220    5.7710   15.4290 C.ar    8  PHE8       -0.0200
     15  CD1       18.5390    5.8740   15.3190 C.ar    8  PHE8       -0.0042
     16  CD2       20.6530    5.4460   14.2940 C.ar    8  PHE8       -0.0042
     17  CE1       17.8970    5.6500   14.1330 C.ar    8  PHE8       -0.0003
     18  CE2       19.9920    5.2130   13.0780 C.ar    8  PHE8       -0.0003
     19  CZ        18.6140    5.3210   13.0190 C.ar    8  PHE8       -0.0000
     20  N         23.9350    7.3160   21.3100 N.3    10  TYR10      -0.1227
     21  CA        25.3570    7.0350   21.2620 C.3    10  TYR10       0.1736
     22  C         25.7060    6.0130   20.2330 C.2    10  TYR10       0.2595
     23  O         26.4830    5.0890   20.4410 O.2    10  TYR10      -0.2718
     24  CB        25.7590    6.5710   22.6360 C.3    10  TYR10       0.0548
     25  CG        25.6440    7.7060   23.5870 C.ar   10  TYR10      -0.0200
     26  CD1       24.8540    8.8230   23.2920 C.ar   10  TYR10      -0.0009
     27  CD2       26.4110    7.7230   24.7150 C.ar   10  TYR10      -0.0009
     28  CE1       24.8650    9.9160   24.0900 C.ar   10  TYR10       0.0417
     29  CE2       26.4330    8.8150   25.5460 C.ar   10  TYR10       0.0417
     30  CZ        25.6640    9.9080   25.2280 C.ar   10  TYR10       0.1957
     31  OH        25.7100   11.0070   26.0430 O.3    10  TYR10      -0.2866
     32  N         25.1090    6.2200   19.0890 N.am   11  PHE11      -0.1962
     33  CA        25.2400    5.2970   17.9760 C.3    11  PHE11       0.1771
     34  C         26.4610    4.4560   17.7450 C.2    11  PHE11       0.2619
     35  O         26.3450    3.2260   17.7970 O.2    11  PHE11      -0.2715
     36  CB        24.8250    5.9770   16.6530 C.3    11  PHE11       0.0574
     37  CG        24.3850    4.9800   15.6020 C.ar   11  PHE11      -0.0200
     38  CD1       23.5580    3.9270   15.9590 C.ar   11  PHE11      -0.0042
     39  CD2       24.8910    5.0210   14.2930 C.ar   11  PHE11      -0.0042
     40  CE1       23.2310    2.9280   15.0310 C.ar   11  PHE11      -0.0003
     41  CE2       24.5640    4.0190   13.3390 C.ar   11  PHE11      -0.0003
     42  CZ        23.7430    2.9720   13.7220 C.ar   11  PHE11      -0.0000
     43  N         27.6210    5.0760   17.5100 N.am   12  TYR12      -0.1974
     44  CA        28.8530    4.3290   17.2400 C.3    12  TYR12       0.1639
     45  C         29.2560    3.4030   18.4010 C.2    12  TYR12       0.2290
     46  O         29.5060    2.2320   18.1480 O.2    12  TYR12      -0.2864
     47  CB        30.0400    5.2340   16.8560 C.3    12  TYR12       0.0560
     48  CG        29.8420    6.1710   15.6670 C.ar   12  TYR12      -0.0198
     49  CD1       28.7000    6.0910   14.8750 C.ar   12  TYR12      -0.0009
     50  CD2       30.8000    7.1590   15.3510 C.ar   12  TYR12      -0.0009
     51  CE1       28.4860    6.9530   13.7980 C.ar   12  TYR12       0.0417
     52  CE2       30.5970    8.0500   14.2720 C.ar   12  TYR12       0.0417
     53  CZ        29.4240    7.9320   13.4990 C.ar   12  TYR12       0.1957
     54  OH        29.1500    8.8080   12.4550 O.3    12  TYR12      -0.2866
     55  N         38.9450    8.3950   16.6500 N.3    32  VAL32      -0.1245
     56  CA        39.4490    8.6590   15.3170 C.3    32  VAL32       0.1561
     57  C         40.9300    8.9100   15.5350 C.2    32  VAL32       0.2260
     58  O         41.3170   10.0280   15.9590 O.2    32  VAL32      -0.2867
     59  CB        38.8490    9.9270   14.7230 C.3    32  VAL32       0.0252
     60  CG1       39.4550   10.1830   13.3170 C.3    32  VAL32       0.0019
     61  CG2       37.3390    9.8030   14.6500 C.3    32  VAL32       0.0019
     62  N         41.0100   12.1690   17.9400 N.3    42  ALA42      -0.1231
     63  CA        39.9150   12.6520   18.7480 C.3    42  ALA42       0.1694
     64  C         38.8950   11.5740   19.0800 C.2    42  ALA42       0.2592
     65  O         38.7610   10.5470   18.3970 O.2    42  ALA42      -0.2718
     66  CB        39.1840   13.8360   17.9920 C.3    42  ALA42       0.0304
     67  N         38.1280   11.8560   20.1130 N.am   43  VAL43      -0.1966
     68  CA        37.0550   10.9590   20.4950 C.3    43  VAL43       0.1727
     69  C         35.8860   11.3000   19.5770 C.2    43  VAL43       0.2616
     70  O         35.4530   12.4600   19.5740 O.2    43  VAL43      -0.2715
     71  CB        36.5890   11.2180   21.9210 C.3    43  VAL43       0.0290
     72  CG1       35.2240   10.5530   22.1030 C.3    43  VAL43       0.0023
     73  CG2       37.6730   10.7240   22.9550 C.3    43  VAL43       0.0023
     74  N         35.4200   10.3140   18.8060 N.am   44  ALA44      -0.1963
     75  CA        34.2690   10.4790   17.8790 C.3    44  ALA44       0.1728
     76  C         32.9900   10.4320   18.7260 C.2    44  ALA44       0.2616
     77  O         32.0850   11.2930   18.5700 O.2    44  ALA44      -0.2715
     78  CB        34.2500    9.3230   16.7940 C.3    44  ALA44       0.0334
     79  N         32.8840    9.4030   19.5760 N.am   45  THR45      -0.1951
     80  CA        31.7700    9.3400   20.5090 C.3    45  THR45       0.1897
     81  C         31.9980    8.3830   21.7040 C.2    45  THR45       0.2313
     82  O         32.8650    7.5500   21.6610 O.2    45  THR45      -0.2863
     83  CB        30.4730    8.9370   19.8220 C.3    45  THR45       0.1794
     84  OG1       29.4130    9.0240   20.7910 O.3    45  THR45      -0.2208
     85  CG2       30.5330    7.5280   19.3500 C.3    45  THR45       0.0378
     86  N         30.7090    9.1180   29.1840 N.3    51  ARG51      -0.1245
     87  CA        30.2990   10.5370   29.2590 C.3    51  ARG51       0.1563
     88  C         30.0580   10.9900   30.6840 C.2    51  ARG51       0.2260
     89  O         30.3350   12.1120   31.0100 O.2    51  ARG51      -0.2867
     90  CB        29.0400   10.8250   28.4000 C.3    51  ARG51       0.0307
     91  CG        29.3140   10.6870   26.9210 C.3    51  ARG51       0.0489
     92  CD        28.6560   11.7070   26.0210 C.3    51  ARG51       0.2205
     93  NE        28.4410   11.0160   24.7490 N.pl3  51  ARG51      -0.0865
     94  CZ        27.4430   11.2200   23.8860 C.cat  51  ARG51       0.5346
     95  NH1       26.5120   12.1200   24.1420 N.pl3  51  ARG51       0.1354
     96  NH2       27.4000   10.5270   22.7420 N.pl3  51  ARG51       0.1354
     97  N         32.6190   13.3230   22.7100 N.3    57  ALA57      -0.1231
     98  CA        33.0240   13.6610   21.3340 C.3    57  ALA57       0.1694
     99  C         33.8000   14.9790   21.3430 C.2    57  ALA57       0.2592
    100  O         33.4210   15.9280   22.0480 O.2    57  ALA57      -0.2718
    101  CB        31.7640   13.8270   20.4270 C.3    57  ALA57       0.0304
    102  N         34.8960   15.0130   20.6020 N.am   58  GLY58      -0.1957
    103  CA        35.6670   16.2360   20.4870 C.3    58  GLY58       0.1869
    104  C         36.9560   16.3560   21.2760 C.2    58  GLY58       0.2309
    105  O         37.8690   17.0530   20.8310 O.2    58  GLY58      -0.2863
    106  N         37.2380    3.9330   15.0530 N.3    76  MET76      -0.1245
    107  CA        35.9960    4.0960   14.2420 C.3    76  MET76       0.1570
    108  C         35.8530    3.0830   13.1480 C.2    76  MET76       0.2261
    109  O         36.8360    2.8140   12.4320 O.2    76  MET76      -0.2867
    110  CB        35.9740    5.4330   13.5440 C.3    76  MET76       0.0387
    111  CG        35.2190    6.4410   14.3160 C.3    76  MET76       0.0595
    112  SD        33.8360    6.9360   13.3490 S.3    76  MET76      -0.1393
    113  CE        34.7360    7.9930   12.1960 C.3    76  MET76       0.0692
    114  N         21.0560   12.3530    9.0560 N.3   103  SER103     -0.1202
    115  CA        22.4500   11.9650    9.2460 C.3   103  SER103      0.2020
    116  C         22.3910   10.4600    9.4830 C.2   103  SER103      0.2619
    117  O         21.3060    9.8530    9.4200 O.2   103  SER103     -0.2717
    118  CB        23.0790   12.6690   10.4580 C.3   103  SER103      0.2103
    119  OG        22.6470   12.0590   11.6700 O.3   103  SER103     -0.2182
    120  N         23.5500    9.8980    9.7760 N.am  104  ILE104     -0.1965
    121  CA        23.6690    8.4830   10.0050 C.3   104  ILE104      0.1727
    122  C         22.8350    8.0920   11.2300 C.2   104  ILE104      0.2616
    123  O         22.4030    6.9490   11.3360 O.2   104  ILE104     -0.2715
    124  CB        25.1960    8.1210   10.1760 C.3   104  ILE104      0.0290
    125  CG1       25.4060    6.5890   10.1860 C.3   104  ILE104      0.0022
    126  CG2       25.7410    8.7360   11.5150 C.3   104  ILE104      0.0023
    127  CD1       26.9370    6.1020   10.2070 C.3   104  ILE104      0.0001
    128  N         22.5750    9.0040   12.1560 N.am  105  ASP105     -0.1957
    129  CA        21.7600    8.5300   13.2750 C.3   105  ASP105      0.1840
    130  C         20.5190    9.3510   13.5970 C.2   105  ASP105      0.2621
    131  O         20.0750    9.3220   14.7340 O.2   105  ASP105     -0.2715
    132  CB        22.6180    8.4270   14.5450 C.3   105  ASP105      0.1450
    133  CG        22.8850    9.7620   15.1090 C.2   105  ASP105      0.3671
    134  OD1       23.0410   10.6340   14.2700 O.co2 105  ASP105     -0.2456
    135  OD2       22.8870    9.9440   16.3240 O.co2 105  ASP105     -0.2456
    136  N         19.9830   10.0910   12.6190 N.am  106  GLU106     -0.1977
    137  CA        18.8140   10.9420   12.8500 C.3   106  GLU106      0.1602
    138  C         17.8520   10.9620   11.6560 C.2   106  GLU106      0.2287
    139  O         18.2860   11.0710   10.4890 O.2   106  GLU106     -0.2864
    140  CB        19.2710   12.3800   13.0920 C.3   106  GLU106      0.0415
    141  CG        20.0750   12.5390   14.3440 C.3   106  GLU106      0.1163
    142  CD        20.4360   13.9940   14.5950 C.2   106  GLU106      0.3649
    143  OE1       19.8840   14.8980   13.9300 O.co2 106  GLU106     -0.2457
    144  OE2       21.2620   14.2300   15.4950 O.co2 106  GLU106     -0.2457
    145  N         13.1900   17.8930   17.5880 N.3   152  LYS152     -0.1245
    146  CA        14.5910   17.5930   17.8950 C.3   152  LYS152      0.1561
    147  C         14.8890   18.0410   19.3120 C.2   152  LYS152      0.2260
    148  O         15.5710   17.3420   20.0640 O.2   152  LYS152     -0.2867
    149  CB        15.5330   18.3250   16.9200 C.3   152  LYS152      0.0271
    150  CG        17.0510   18.2110   17.2420 C.3   152  LYS152      0.0035
    151  CD        17.8930   18.4650   15.9380 C.3   152  LYS152      0.0206
    152  CE        19.4040   18.1550   16.0670 C.3   152  LYS152      0.1093
    153  NZ        19.6970   16.7170   16.3760 N.3   152  LYS152     -0.1314
    154  N         16.8910   12.3950   25.8020 N.3   159  LYS159     -0.1245
    155  CA        17.8930   11.3510   25.6260 C.3   159  LYS159      0.1561
    156  C         18.6050   11.0550   26.9220 C.2   159  LYS159      0.2260
    157  O         18.8240   11.9450   27.7120 O.2   159  LYS159     -0.2867
    158  CB        18.8720   11.6790   24.4690 C.3   159  LYS159      0.0271
    159  CG        19.7600   12.9070   24.6070 C.3   159  LYS159      0.0035
    160  CD        20.7590   13.0100   23.4120 C.3   159  LYS159      0.0206
    161  CE        20.0720   13.1830   22.0340 C.3   159  LYS159      0.1093
    162  NZ        21.0400   13.4430   20.9120 N.3   159  LYS159     -0.1314
@<TRIPOS>BOND
     1   114   115    1
     2   115   116    1
     3   115   118    1
     4   117   116    2
     5   116   120   am
     6   120   121    1
     7   121   124    1
     8   121   122    1
     9   124   125    1
    10   124   126    1
    11   125   127    1
    12   118   119    1
    13   139   138    2
    14   122   123    2
    15   122   128   am
    16   138   137    1
    17   128   129    1
    18   113   112    1
    19   109   108    2
    20    54    53    1
    21   136   137    1
    22   136   130   am
    23   137   140    1
    24    19    18   ar
    25    19    17   ar
    26    18    16   ar
    27   140   141    1
    28   108   107    1
    29   129   130    1
    30   129   132    1
    31    60    59    1
    32    41    42   ar
    33    41    39   ar
    34   112   111    1
    35    53    51   ar
    36    53    52   ar
    37   110   107    1
    38   110   111    1
    39   130   131    2
    40    42    40   ar
    41    51    49   ar
    42   143   142   ar
    43    17    15   ar
    44   107   106    1
    45   134   133   ar
    46    52    50   ar
    47    39    37   ar
    48    16    14   ar
    49   141   142    1
    50   132   133    1
    51   142   144   ar
    52    61    59    1
    53    59    56    1
    54    49    48   ar
    55    40    38   ar
    56   133   135   ar
    57    56    57    1
    58    56    55    1
    59    15    14   ar
    60    50    48   ar
    61    14    13    1
    62    57    58    2
    63    37    38   ar
    64    37    36    1
    65    48    47    1
    66   151   152    1
    67   151   150    1
    68   152   153    1
    69    36    33    1
    70    13    10    1
    71    78    75    1
    72    47    44    1
    73   149   150    1
    74   149   146    1
    75     1     2    1
    76     9    10    1
    77     9     3   am
    78     2     3    1
    79     2     5    1
    80    44    43    1
    81    44    45    1
    82    43    34   am
    83   145   146    1
    84    34    35    2
    85    34    33    1
    86    10    11    1
    87     3     4    2
    88    75    76    1
    89    75    74    1
    90   146   147    1
    91    62    63    1
    92    33    32    1
    93    66    63    1
    94     8     6   ar
    95     5     6    1
    96    46    45    2
    97     6     7   ar
    98    65    64    2
    99    77    76    2
   100    76    79   am
   101    63    64    1
   102    74    69   am
   103    12    11    2
   104    64    67   am
   105    32    22   am
   106   147   148    2
   107    85    83    1
   108    70    69    2
   109    79    80    1
   110    69    68    1
   111    83    80    1
   112    83    84    1
   113    67    68    1
   114    22    23    2
   115    22    21    1
   116   101    98    1
   117   103   102    1
   118   103   104    1
   119    68    71    1
   120    80    81    1
   121   102    99   am
   122   105   104    2
   123   162   161    1
   124    21    20    1
   125    21    24    1
   126    98    99    1
   127    98    97    1
   128    99   100    2
   129    82    81    2
   130    71    72    1
   131    71    73    1
   132   161   160    1
   133    24    25    1
   134    96    94    1
   135    26    25   ar
   136    26    28   ar
   137   160   159    1
   138    25    27   ar
   139    94    95    1
   140    94    93    2
   141    28    30   ar
   142   158   159    1
   143   158   155    1
   144    27    29   ar
   145    93    92    1
   146    30    29   ar
   147    30    31    1
   148   155   154    1
   149   155   156    1
   150    92    91    1
   151    91    90    1
   152   156   157    2
   153    90    87    1
   154    86    87    1
   155    87    88    1
   156    88    89    2
