@<TRIPOS>MOLECULE
tmp/1jxmA01.pdb
 81 79 0 0 0
SMALL
GASTEIGER

@<TRIPOS>ATOM
      1  N         53.5700   35.5860   55.4020 N.3   104  PRO104     -0.2116
      2  CA        52.9770   36.8070   54.8530 C.3   104  PRO104      0.1372
      3  C         53.1580   37.9820   55.8070 C.2   104  PRO104      0.2244
      4  O         53.4670   37.7900   56.9860 O.2   104  PRO104     -0.2868
      5  CB        51.4930   36.4570   54.7110 C.3   104  PRO104      0.0268
      6  CG        51.3620   35.0150   55.2280 C.3   104  PRO104      0.0207
      7  CD        52.5470   34.7890   56.0910 C.3   104  PRO104      0.0892
      8  N         53.0030   35.7530   61.0040 N.3   120  TYR120     -0.1241
      9  CA        53.0530   36.8300   60.0250 C.3   120  TYR120      0.1605
     10  C         54.2210   37.7100   60.3940 C.2   120  TYR120      0.2264
     11  O         54.7780   37.5980   61.4880 O.2   120  TYR120     -0.2867
     12  CB        51.8070   37.7240   60.0910 C.3   120  TYR120      0.0534
     13  CG        50.5270   37.1170   59.5880 C.ar  120  TYR120     -0.0201
     14  CD1       49.7380   36.3150   60.4120 C.ar  120  TYR120     -0.0009
     15  CD2       50.1040   37.3430   58.2780 C.ar  120  TYR120     -0.0009
     16  CE1       48.5560   35.7520   59.9410 C.ar  120  TYR120      0.0417
     17  CE2       48.9300   36.7870   57.7980 C.ar  120  TYR120      0.0417
     18  CZ        48.1610   35.9930   58.6300 C.ar  120  TYR120      0.1957
     19  OH        47.0100   35.4260   58.1390 O.3   120  TYR120     -0.2866
     20  N         52.1090   40.0020   45.7840 N.3   140  GLU140     -0.1231
     21  CA        50.6770   40.2640   45.8350 C.3   140  GLU140      0.1699
     22  C         50.2550   40.7010   47.2330 C.2   140  GLU140      0.2592
     23  O         50.8600   40.3070   48.2320 O.2   140  GLU140     -0.2718
     24  CB        49.8890   39.0220   45.4120 C.3   140  GLU140      0.0402
     25  CG        48.3940   39.2420   45.2710 C.3   140  GLU140      0.1161
     26  CD        47.7490   38.2280   44.3330 C.2   140  GLU140      0.3649
     27  OE1       48.0320   38.2820   43.1160 O.co2 140  GLU140     -0.2457
     28  OE2       46.9690   37.3750   44.8090 O.co2 140  GLU140     -0.2457
     29  N         49.2130   41.5220   47.3000 N.am  141  ALA141     -0.1966
     30  CA        48.7200   42.0150   48.5750 C.3   141  ALA141      0.1728
     31  C         47.2430   42.3210   48.4740 C.2   141  ALA141      0.2616
     32  O         46.6860   42.3800   47.3780 O.2   141  ALA141     -0.2715
     33  CB        49.4830   43.2640   48.9830 C.3   141  ALA141      0.0334
     34  N         46.6090   42.5120   49.6250 N.am  142  GLY142     -0.1955
     35  CA        45.1920   42.8110   49.6370 C.3   142  GLY142      0.1869
     36  C         44.7320   43.3030   50.9890 C.2   142  GLY142      0.2309
     37  O         45.5210   43.4180   51.9290 O.2   142  GLY142     -0.2863
     38  N         47.3330   42.6320   54.0370 N.3   149  TYR149     -0.1227
     39  CA        48.0180   41.3460   54.0590 C.3   149  TYR149      0.1736
     40  C         48.7660   41.2420   52.7440 C.2   149  TYR149      0.2596
     41  O         48.2560   41.6530   51.7000 O.2   149  TYR149     -0.2718
     42  CB        47.0230   40.1870   54.1500 C.3   149  TYR149      0.0548
     43  CG        46.2110   40.1390   55.4140 C.ar  149  TYR149     -0.0200
     44  CD1       45.1370   41.0080   55.6130 C.ar  149  TYR149     -0.0009
     45  CD2       46.5090   39.2170   56.4190 C.ar  149  TYR149     -0.0009
     46  CE1       44.3810   40.9620   56.7740 C.ar  149  TYR149      0.0417
     47  CE2       45.7580   39.1640   57.5870 C.ar  149  TYR149      0.0417
     48  CZ        44.6960   40.0380   57.7570 C.ar  149  TYR149      0.1957
     49  OH        43.9510   39.9870   58.9100 O.3   149  TYR149     -0.2866
     50  N         49.9720   40.6930   52.7770 N.am  150  GLY150     -0.1942
     51  CA        50.7170   40.5720   51.5440 C.3   150  GLY150      0.2014
     52  C         51.7740   39.4920   51.5350 C.2   150  GLY150      0.2639
     53  O         52.3040   39.0990   52.5760 O.2   150  GLY150     -0.2714
     54  N         52.0670   39.0030   50.3390 N.am  151  THR151     -0.1950
     55  CA        53.0840   37.9900   50.1470 C.3   151  THR151      0.1897
     56  C         54.2690   38.7290   49.5350 C.2   151  THR151      0.2313
     57  O         54.2360   39.1220   48.3640 O.2   151  THR151     -0.2863
     58  CB        52.5760   36.8870   49.1990 C.3   151  THR151      0.1794
     59  OG1       51.4830   36.2060   49.8220 O.3   151  THR151     -0.2208
     60  CG2       53.6780   35.8990   48.8780 C.3   151  THR151      0.0378
     61  N         49.2670   30.9270   47.8120 N.3   169  ASP169     -0.1225
     62  CA        47.8290   31.0450   47.7470 C.3   169  ASP169      0.1805
     63  C         47.5860   32.4780   47.2970 C.2   169  ASP169      0.2598
     64  O         47.1860   33.3420   48.0830 O.2   169  ASP169     -0.2718
     65  CB        47.2060   30.7840   49.1190 C.3   169  ASP169      0.1424
     66  CG        45.7000   30.6550   49.0540 C.2   169  ASP169      0.3668
     67  OD1       45.0980   30.1940   50.0470 O.co2 169  ASP169     -0.2456
     68  OD2       45.1140   31.0210   48.0100 O.co2 169  ASP169     -0.2456
     69  N         47.8760   32.7180   46.0250 N.am  170  VAL170     -0.1966
     70  CA        47.7240   34.0270   45.4090 C.3   170  VAL170      0.1727
     71  C         47.0630   33.8550   44.0410 C.2   170  VAL170      0.2616
     72  O         47.0060   32.7440   43.5080 O.2   170  VAL170     -0.2715
     73  CB        49.0940   34.7030   45.2200 C.3   170  VAL170      0.0290
     74  CG1       49.7520   34.9470   46.5840 C.3   170  VAL170      0.0023
     75  CG2       49.9960   33.8140   44.3600 C.3   170  VAL170      0.0023
     76  N         46.5750   34.9570   43.4770 N.am  171  SER171     -0.1950
     77  CA        45.9140   34.9410   42.1750 C.3   171  SER171      0.1924
     78  C         46.9200   34.7740   41.0380 C.2   171  SER171      0.2314
     79  O         48.1330   34.8410   41.2470 O.2   171  SER171     -0.2863
     80  CB        45.1400   36.2450   41.9690 C.3   171  SER171      0.2116
     81  OG        46.0300   37.3010   41.6650 O.3   171  SER171     -0.2180
@<TRIPOS>BOND
     1    78    79    2
     2    78    77    1
     3    81    80    1
     4    80    77    1
     5    77    76    1
     6    27    26   ar
     7    76    71   am
     8    72    71    2
     9    71    70    1
    10    26    28   ar
    11    26    25    1
    12    75    73    1
    13    73    70    1
    14    73    74    1
    15    25    24    1
    16    70    69    1
    17    24    21    1
    18    20    21    1
    19    21    22    1
    20    69    63   am
    21    22    29   am
    22    22    23    2
    23    63    62    1
    24    63    64    2
    25    29    30    1
    26    32    31    2
    27    62    61    1
    28    62    65    1
    29    68    66   ar
    30    57    56    2
    31    31    30    1
    32    31    34   am
    33    30    33    1
    34    60    58    1
    35    66    65    1
    36    66    67   ar
    37    58    59    1
    38    58    55    1
    39    56    55    1
    40    34    35    1
    41    35    36    1
    42    55    54    1
    43    54    52   am
    44    36    37    2
    45    52    51    1
    46    52    53    2
    47    51    50    1
    48    41    40    2
    49    40    50   am
    50    40    39    1
    51    38    39    1
    52    39    42    1
    53    42    43    1
    54     5     2    1
    55     5     6    1
    56     2     1    1
    57     2     3    1
    58     6     7    1
    59     1     7    1
    60    43    44   ar
    61    43    45   ar
    62    44    46   ar
    63     3     4    2
    64    45    47   ar
    65    46    48   ar
    66    47    48   ar
    67    48    49    1
    68    17    15   ar
    69    17    18   ar
    70    19    18    1
    71    15    13   ar
    72    18    16   ar
    73    13    12    1
    74    13    14   ar
    75    16    14   ar
    76     9    12    1
    77     9    10    1
    78     9     8    1
    79    10    11    2
