@<TRIPOS>MOLECULE
tmp/1jxnA00.pdb
 120 116 0 0 0
SMALL
GASTEIGER

@<TRIPOS>ATOM
      1  N         -5.2380   17.8210    5.8630 N.3    44  GLU44      -0.1245
      2  CA        -4.3180   16.6820    6.0280 C.3    44  GLU44       0.1567
      3  C         -4.1980   16.4050    7.5330 C.2    44  GLU44       0.2260
      4  O         -3.4650   17.1000    8.2270 O.2    44  GLU44      -0.2867
      5  CB        -2.9360   17.0270    5.4690 C.3    44  GLU44       0.0388
      6  CG        -2.9140   17.2780    3.9820 C.3    44  GLU44       0.1160
      7  CD        -1.6520   17.9690    3.5440 C.2    44  GLU44       0.3649
      8  OE1       -1.1940   18.8730    4.2730 O.co2  44  GLU44      -0.2457
      9  OE2       -1.1170   17.6200    2.4700 O.co2  44  GLU44      -0.2457
     10  N         -8.1030    7.7080    1.4270 N.3    86  THR86      -0.1203
     11  CA        -6.7020    8.0030    1.7530 C.3    86  THR86       0.1994
     12  C         -6.4760    7.8410    3.2770 C.2    86  THR86       0.2617
     13  O         -7.4550    7.7890    4.0400 O.2    86  THR86      -0.2717
     14  CB        -6.3900    9.4810    1.3970 C.3    86  THR86       0.1784
     15  OG1       -7.0880   10.3750    2.2850 O.3    86  THR86      -0.2211
     16  CG2       -6.7940    9.7650   -0.0230 C.3    86  THR86       0.0376
     17  N         -5.2350    7.6640    3.7490 N.am   87  ASP87      -0.1973
     18  CA        -3.9840    7.6040    2.9890 C.3    87  ASP87       0.1709
     19  C         -3.2820    6.3470    3.4780 C.2    87  ASP87       0.2293
     20  O         -2.3670    5.8510    2.8170 O.2    87  ASP87      -0.2864
     21  CB        -3.0880    8.7640    3.3370 C.3    87  ASP87       0.1436
     22  CG        -3.4130    9.9790    2.5580 C.2    87  ASP87       0.3671
     23  OD1       -4.1870   10.8170    3.0620 O.co2  87  ASP87      -0.2456
     24  OD2       -2.8810   10.1090    1.4320 O.co2  87  ASP87      -0.2456
     25  N          3.9660   16.3980    8.4510 N.3   102  ARG102     -0.1231
     26  CA         2.8500   16.5070    7.5220 C.3   102  ARG102      0.1694
     27  C          2.0830   15.2150    7.4180 C.2   102  ARG102      0.2592
     28  O          2.6770   14.1500    7.2610 O.2   102  ARG102     -0.2718
     29  CB         3.3390   16.9390    6.1480 C.3   102  ARG102      0.0321
     30  CG         2.2160   17.2160    5.1830 C.3   102  ARG102      0.0489
     31  CD         2.7420   17.9420    3.9880 C.3   102  ARG102      0.2205
     32  NE         1.7700   17.9670    2.9080 N.pl3 102  ARG102     -0.0865
     33  CZ         2.0820   18.2650    1.6530 C.cat 102  ARG102      0.5346
     34  NH1        3.3440   18.5640    1.3410 N.pl3 102  ARG102      0.1354
     35  NH2        1.1460   18.2270    0.7110 N.pl3 102  ARG102      0.1354
     36  N          0.7590   15.3300    7.4890 N.am  103  ALA103     -0.1966
     37  CA        -0.1250   14.1830    7.4230 C.3   103  ALA103      0.1728
     38  C         -0.5990   13.9480    5.9970 C.2   103  ALA103      0.2617
     39  O         -0.0070   14.4580    5.0490 O.2   103  ALA103     -0.2715
     40  CB        -1.2960   14.3840    8.3610 C.3   103  ALA103      0.0334
     41  N         -1.6780   13.1930    5.8390 N.am  104  GLY104     -0.1940
     42  CA        -2.1640   12.9180    4.5050 C.3   104  GLY104      0.2014
     43  C         -1.2740   11.8610    3.8810 C.2   104  GLY104      0.2639
     44  O         -1.0400   10.8120    4.4850 O.2   104  GLY104     -0.2714
     45  N         -0.7560   12.1390    2.6880 N.am  105  GLY105     -0.1939
     46  CA         0.0930   11.1780    2.0080 C.3   105  GLY105      0.2014
     47  C          1.4640   11.0210    2.6180 C.2   105  GLY105      0.2638
     48  O          2.1890   10.0930    2.2900 O.2   105  GLY105     -0.2714
     49  N          1.8230   11.9340    3.5070 N.am  106  TYR106     -0.1973
     50  CA         3.1210   11.8870    4.1510 C.3   106  TYR106      0.1639
     51  C          3.1180   11.1270    5.4630 C.2   106  TYR106      0.2290
     52  O          4.1660   10.9560    6.0800 O.2   106  TYR106     -0.2864
     53  CB         3.6490   13.2990    4.3140 C.3   106  TYR106      0.0560
     54  CG         3.8670   13.9630    2.9720 C.ar  106  TYR106     -0.0198
     55  CD1        2.8450   14.6990    2.3520 C.ar  106  TYR106     -0.0009
     56  CD2        5.0880   13.8380    2.3040 C.ar  106  TYR106     -0.0009
     57  CE1        3.0400   15.2880    1.1040 C.ar  106  TYR106      0.0417
     58  CE2        5.2860   14.4240    1.0610 C.ar  106  TYR106      0.0417
     59  CZ         4.2650   15.1470    0.4740 C.ar  106  TYR106      0.1957
     60  OH         4.5010   15.7620   -0.7210 O.3   106  TYR106     -0.2866
     61  N         -3.6640    5.1720   -1.0830 N.3   129  ILE129     -0.1245
     62  CA        -3.8860    6.0040   -2.2750 C.3   129  ILE129      0.1561
     63  C         -2.5780    6.4490   -2.9570 C.2   129  ILE129      0.2260
     64  O         -1.7690    7.1970   -2.3920 O.2   129  ILE129     -0.2867
     65  CB        -4.8230    7.2140   -1.9980 C.3   129  ILE129      0.0252
     66  CG1       -5.5710    7.6030   -3.2810 C.3   129  ILE129      0.0019
     67  CG2       -4.0460    8.4080   -1.4690 C.3   129  ILE129      0.0019
     68  CD1       -6.6250    6.5990   -3.7350 C.3   129  ILE129      0.0001
     69  N         -3.0700   10.6680   -7.7710 N.3   133  VAL133     -0.1231
     70  CA        -3.4350   11.5150   -6.6160 C.3   133  VAL133      0.1692
     71  C         -2.1780   11.8320   -5.7870 C.2   133  VAL133      0.2592
     72  O         -1.9290   12.9880   -5.4210 O.2   133  VAL133     -0.2718
     73  CB        -4.4680   10.8090   -5.7070 C.3   133  VAL133      0.0266
     74  CG1       -4.9020   11.7510   -4.5900 C.3   133  VAL133      0.0020
     75  CG2       -5.6740   10.3390   -6.5350 C.3   133  VAL133      0.0020
     76  N         -1.4040   10.7850   -5.4990 N.am  134  ASN134     -0.1974
     77  CA        -0.1420   10.8840   -4.7690 C.3   134  ASN134      0.1688
     78  C          0.9310   10.6040   -5.8090 C.2   134  ASN134      0.2292
     79  O          1.3190    9.4570   -6.0350 O.2   134  ASN134     -0.2864
     80  CB        -0.0730    9.8340   -3.6510 C.3   134  ASN134      0.1181
     81  CG        -0.5940   10.3530   -2.3120 C.2   134  ASN134      0.2629
     82  OD1       -0.5170    9.6500   -1.2960 O.2   134  ASN134     -0.2716
     83  ND2       -1.1140   11.5820   -2.2980 N.am  134  ASN134     -0.0877
     84  N          4.2470   10.7640   -6.2520 N.3   136  TRP136     -0.1241
     85  CA         5.4240    9.9380   -5.8810 C.3   136  TRP136      0.1605
     86  C          5.2120    8.4370   -5.6830 C.2   136  TRP136      0.2264
     87  O          6.1810    7.7070   -5.4320 O.2   136  TRP136     -0.2867
     88  CB         6.0340   10.4830   -4.5810 C.3   136  TRP136      0.0550
     89  CG         5.0470   10.4760   -3.4370 C.ar  136  TRP136      0.0003
     90  CD1        4.8310    9.4650   -2.5420 C.ar  136  TRP136      0.0946
     91  CD2        4.1410   11.5250   -3.0790 C.ar  136  TRP136      0.0152
     92  NE1        3.8480    9.8230   -1.6500 N.ar  136  TRP136     -0.2442
     93  CE2        3.4110   11.0810   -1.9530 C.ar  136  TRP136      0.0810
     94  CE3        3.8790   12.8000   -3.5980 C.ar  136  TRP136      0.0012
     95  CZ2        2.4380   11.8680   -1.3350 C.ar  136  TRP136      0.0191
     96  CZ3        2.9110   13.5830   -2.9830 C.ar  136  TRP136      0.0001
     97  CH2        2.2010   13.1120   -1.8590 C.ar  136  TRP136      0.0015
     98  N         -7.4720   12.2210    4.3180 N.3   219  TYR219     -0.1241
     99  CA        -7.5640   13.5450    3.7070 C.3   219  TYR219      0.1605
    100  C         -9.0090   14.0080    3.5460 C.2   219  TYR219      0.2264
    101  O         -9.9050   13.1970    3.3230 O.2   219  TYR219     -0.2867
    102  CB        -6.8790   13.4920    2.3350 C.3   219  TYR219      0.0534
    103  CG        -6.8260   14.8020    1.5780 C.ar  219  TYR219     -0.0201
    104  CD1       -7.4530   14.9330    0.3390 C.ar  219  TYR219     -0.0009
    105  CD2       -6.1130   15.8860    2.0730 C.ar  219  TYR219     -0.0009
    106  CE1       -7.3610   16.1020   -0.3950 C.ar  219  TYR219      0.0417
    107  CE2       -6.0080   17.0590    1.3570 C.ar  219  TYR219      0.0417
    108  CZ        -6.6340   17.1630    0.1180 C.ar  219  TYR219      0.1957
    109  OH        -6.4850   18.3200   -0.6280 O.3   219  TYR219     -0.2866
    110  N        -11.7420   12.3960    1.2520 N.3   222  ARG222     -0.1245
    111  CA       -11.4440   10.9670    1.1600 C.3   222  ARG222      0.1563
    112  C        -11.0860   10.4230    2.5550 C.2   222  ARG222      0.2260
    113  O        -10.1700    9.6000    2.6940 O.2   222  ARG222     -0.2867
    114  CB       -10.2740   10.7400    0.1890 C.3   222  ARG222      0.0307
    115  CG       -10.4570   11.3810   -1.1770 C.3   222  ARG222      0.0489
    116  CD        -9.1400   11.4740   -1.9500 C.3   222  ARG222      0.2205
    117  NE        -9.0150   10.4670   -3.0060 N.pl3 222  ARG222     -0.0865
    118  CZ        -8.8540   10.7540   -4.2980 C.cat 222  ARG222      0.5346
    119  NH1       -8.7970   12.0190   -4.7080 N.pl3 222  ARG222      0.1354
    120  NH2       -8.7440    9.7750   -5.1850 N.pl3 222  ARG222      0.1354
@<TRIPOS>BOND
     1    69    70    1
     2    70    71    1
     3    70    73    1
     4    75    73    1
     5    84    85    1
     6    79    78    2
     7    85    86    1
     8    85    88    1
     9    78    77    1
    10    71    76   am
    11    71    72    2
    12    73    74    1
    13    86    87    2
    14    76    77    1
    15   120   118    1
    16    77    80    1
    17   119   118    1
    18    88    89    1
    19   118   117    2
    20    68    66    1
    21    80    81    1
    22    94    91   ar
    23    94    96   ar
    24    89    91   ar
    25    89    90   ar
    26    66    65    1
    27    91    93   ar
    28   117   116    1
    29    96    97   ar
    30    63    64    2
    31    63    62    1
    32    90    92   ar
    33    81    83   am
    34    81    82    2
    35    62    65    1
    36    62    61    1
    37    65    67    1
    38    93    92   ar
    39    93    95   ar
    40   116   115    1
    41    97    95   ar
    42   115   114    1
    43    60    59    1
    44   109   108    1
    45   106   108   ar
    46   106   104   ar
    47    16    14    1
    48   108   107   ar
    49   114   111    1
    50   104   103   ar
    51    59    58   ar
    52    59    57   ar
    53    35    33    1
    54    58    56   ar
    55    57    55   ar
    56   111   110    1
    57   111   112    1
    58    34    33    1
    59   107   105   ar
    60    14    11    1
    61    14    15    1
    62    10    11    1
    63    24    22   ar
    64   103   105   ar
    65   103   102    1
    66    33    32    2
    67    11    12    1
    68    46    47    1
    69    46    45    1
    70    48    47    2
    71    56    54   ar
    72   102    99    1
    73    55    54   ar
    74     9     7   ar
    75   112   113    2
    76    22    23   ar
    77    22    21    1
    78    47    49   am
    79    45    43   am
    80    20    19    2
    81    32    31    1
    82    54    53    1
    83    18    21    1
    84    18    19    1
    85    18    17    1
    86    12    17   am
    87    12    13    2
    88   101   100    2
    89    49    50    1
    90     7     6    1
    91     7     8   ar
    92   100    99    1
    93    99    98    1
    94    43    44    2
    95    43    42    1
    96     6     5    1
    97    31    30    1
    98    50    53    1
    99    50    51    1
   100    42    41    1
   101    39    38    2
   102    30    29    1
   103    51    52    2
   104     5     2    1
   105    41    38   am
   106     1     2    1
   107    38    37    1
   108     2     3    1
   109    29    26    1
   110    28    27    2
   111    27    36   am
   112    27    26    1
   113    37    36    1
   114    37    40    1
   115    26    25    1
   116     3     4    2
