@<TRIPOS>MOLECULE
tmp/1jxqA00.pdb
 180 180 0 0 0
SMALL
GASTEIGER

@<TRIPOS>ATOM
      1  N         22.2810   51.6090  -18.5180 N.3    39  LEU39      -0.1231
      2  CA        21.8080   50.4250  -17.8100 C.3    39  LEU39       0.1693
      3  C         20.7200   49.7810  -18.6400 C.2    39  LEU39       0.2592
      4  O         19.8850   50.4780  -19.2130 O.2    39  LEU39      -0.2718
      5  CB        21.2460   50.8100  -16.4390 C.3    39  LEU39       0.0284
      6  CG        22.2430   51.4020  -15.4410 C.3    39  LEU39       0.0019
      7  CD1       21.5350   51.8180  -14.1620 C.3    39  LEU39       0.0001
      8  CD2       23.3210   50.3690  -15.1520 C.3    39  LEU39       0.0001
      9  N         20.7300   48.4540  -18.7040 N.am   40  ARG40      -0.1966
     10  CA        19.7470   47.7070  -19.4840 C.3    40  ARG40       0.1729
     11  C         18.4270   47.4870  -18.7550 C.2    40  ARG40       0.2617
     12  O         18.3630   47.5890  -17.5310 O.2    40  ARG40      -0.2715
     13  CB        20.3300   46.3500  -19.8670 C.3    40  ARG40       0.0348
     14  CG        21.6280   46.4360  -20.6270 C.3    40  ARG40       0.0492
     15  CD        22.0910   45.0610  -21.0280 C.3    40  ARG40       0.2205
     16  NE        22.5450   45.0390  -22.4130 N.pl3  40  ARG40      -0.0865
     17  CZ        21.7620   45.2930  -23.4560 C.cat  40  ARG40       0.5346
     18  NH1       20.4770   45.5890  -23.2720 N.pl3  40  ARG40       0.1354
     19  NH2       22.2660   45.2550  -24.6830 N.pl3  40  ARG40       0.1354
     20  N         17.3710   47.1870  -19.5100 N.am   41  THR41      -0.1937
     21  CA        16.0660   46.9100  -18.9050 C.3    41  THR41       0.2028
     22  C         16.1850   45.5710  -18.2000 C.2    41  THR41       0.2642
     23  O         16.5950   44.5780  -18.7930 O.2    41  THR41      -0.2714
     24  CB        14.9570   46.7970  -19.9520 C.3    41  THR41       0.1808
     25  OG1       14.8120   48.0460  -20.6250 O.3    41  THR41      -0.2208
     26  CG2       13.6500   46.4480  -19.2980 C.3    41  THR41       0.0379
     27  N         15.8220   45.5480  -16.9300 N.am   42  ARG42      -0.1963
     28  CA        15.9230   44.3320  -16.1430 C.3    42  ARG42       0.1729
     29  C         14.7650   43.3640  -16.3770 C.2    42  ARG42       0.2616
     30  O         13.9750   43.0810  -15.4720 O.2    42  ARG42      -0.2715
     31  CB        16.0390   44.7120  -14.6710 C.3    42  ARG42       0.0348
     32  CG        17.2450   45.6070  -14.4070 C.3    42  ARG42       0.0492
     33  CD        17.4890   45.7940  -12.9370 C.3    42  ARG42       0.2205
     34  NE        17.5570   44.4980  -12.2800 N.pl3  42  ARG42      -0.0865
     35  CZ        16.5520   43.9570  -11.6110 C.cat  42  ARG42       0.5346
     36  NH1       16.6960   42.7640  -11.0630 N.pl3  42  ARG42       0.1354
     37  NH2       15.4170   44.6240  -11.4680 N.pl3  42  ARG42       0.1354
     38  N         14.6940   42.8600  -17.6100 N.am   43  THR43      -0.1951
     39  CA        13.6580   41.9240  -18.0380 C.3    43  THR43       0.1897
     40  C         13.6060   40.6870  -17.1550 C.2    43  THR43       0.2313
     41  O         14.6070   39.9870  -16.9810 O.2    43  THR43      -0.2863
     42  CB        13.8790   41.5060  -19.5250 C.3    43  THR43       0.1794
     43  OG1       13.4230   42.5590  -20.3870 O.3    43  THR43      -0.2208
     44  CG2       13.1450   40.2110  -19.8590 C.3    43  THR43       0.0378
     45  N         17.2430   45.5890   -8.6280 N.3    98  SER98      -0.1202
     46  CA        17.7790   46.6240   -9.5060 C.3    98  SER98       0.2020
     47  C         19.2460   46.3960   -9.8600 C.2    98  SER98       0.2618
     48  O         19.8250   45.3820   -9.4920 O.2    98  SER98      -0.2717
     49  CB        17.6220   47.9750   -8.8100 C.3    98  SER98       0.2103
     50  OG        18.0880   49.0370   -9.6020 O.3    98  SER98      -0.2182
     51  N         19.8270   47.3280  -10.6080 N.am   99  HIS99      -0.1975
     52  CA        21.2300   47.2510  -10.9870 C.3    99  HIS99       0.1656
     53  C         22.0030   47.7430   -9.7710 C.2    99  HIS99       0.2291
     54  O         21.4550   48.4870   -8.9620 O.2    99  HIS99      -0.2864
     55  CB        21.5280   48.1680  -12.1740 C.3    99  HIS99       0.0771
     56  CG        21.0310   47.6510  -13.4890 C.ar   99  HIS99       0.0820
     57  ND1       21.4050   46.4270  -14.0000 N.ar   99  HIS99      -0.2267
     58  CD2       20.2080   48.2060  -14.4110 C.ar   99  HIS99       0.1154
     59  CE1       20.8330   46.2480  -15.1780 C.ar   99  HIS99       0.1986
     60  NE2       20.1010   47.3140  -15.4500 N.ar   99  HIS99      -0.2212
     61  N         19.0630   42.2370   -4.4430 N.3   147  GLN147     -0.1231
     62  CA        19.2590   41.5900   -5.7320 C.3   147  GLN147      0.1698
     63  C         19.7930   42.6210   -6.7290 C.2   147  GLN147      0.2592
     64  O         19.0250   43.2720   -7.4460 O.2   147  GLN147     -0.2718
     65  CB        17.9300   40.9850   -6.2320 C.3   147  GLN147      0.0381
     66  CG        17.9600   40.5060   -7.6920 C.3   147  GLN147      0.0905
     67  CD        19.1330   39.5820   -7.9830 C.2   147  GLN147      0.2608
     68  OE1       19.8280   39.7200   -9.0010 O.2   147  GLN147     -0.2717
     69  NE2       19.3560   38.6290   -7.0920 N.am  147  GLN147     -0.0878
     70  N         21.1120   42.7700   -6.7580 N.am  148  ALA148     -0.1966
     71  CA        21.7710   43.7140   -7.6630 C.3   148  ALA148      0.1728
     72  C         23.2140   43.2950   -7.8540 C.2   148  ALA148      0.2616
     73  O         23.7880   42.6300   -6.9930 O.2   148  ALA148     -0.2715
     74  CB        21.7280   45.1330   -7.0870 C.3   148  ALA148      0.0334
     75  N         23.8040   43.6700   -8.9780 N.am  149  CYS149     -0.1968
     76  CA        25.1990   43.3290   -9.2000 C.3   149  CYS149      0.1712
     77  C         25.9950   43.8600   -8.0170 C.2   149  CYS149      0.2296
     78  O         25.7910   44.9880   -7.5750 O.2   149  CYS149     -0.2864
     79  CB        25.7150   43.9610  -10.4920 C.3   149  CYS149      0.0983
     80  SG        25.4270   42.9800  -11.9650 S.3   149  CYS149     -0.0798
     81  N         33.0020   39.1620  -13.7130 N.3   154  LYS154     -0.1245
     82  CA        32.2710   37.9560  -14.0710 C.3   154  LYS154      0.1561
     83  C         33.1420   36.8040  -13.6120 C.2   154  LYS154      0.2260
     84  O         34.2000   36.5470  -14.1800 O.2   154  LYS154     -0.2867
     85  CB        32.0220   37.9060  -15.5810 C.3   154  LYS154      0.0271
     86  CG        31.1740   39.0820  -16.0690 C.3   154  LYS154      0.0035
     87  CD        30.9040   39.0760  -17.5700 C.3   154  LYS154      0.0206
     88  CE        30.2000   40.3780  -17.9740 C.3   154  LYS154      0.1093
     89  NZ        29.8360   40.4800  -19.4210 N.3   154  LYS154     -0.1314
     90  N         29.4410   39.9650  -10.3350 N.3   178  VAL178     -0.1231
     91  CA        28.2410   40.1140  -11.1410 C.3   178  VAL178      0.1692
     92  C         27.1580   39.1510  -10.6760 C.2   178  VAL178      0.2593
     93  O         27.4490   38.0070  -10.3270 O.2   178  VAL178     -0.2718
     94  CB        28.5820   39.8660  -12.6400 C.3   178  VAL178      0.0266
     95  CG1       27.3860   39.3470  -13.3920 C.3   178  VAL178      0.0020
     96  CG2       29.0830   41.1570  -13.2690 C.3   178  VAL178      0.0020
     97  N         25.9170   39.6430  -10.6630 N.am  179  SER179     -0.1938
     98  CA        24.7330   38.8740  -10.2590 C.3   179  SER179      0.2055
     99  C         24.0270   38.4590  -11.5500 C.2   179  SER179      0.2643
    100  O         23.7940   39.3030  -12.4100 O.2   179  SER179     -0.2714
    101  CB        23.8090   39.7580   -9.4130 C.3   179  SER179      0.2130
    102  OG        22.8040   39.0030   -8.7620 O.3   179  SER179     -0.2179
    103  N         23.6820   37.1810  -11.6910 N.am  180  TRP180     -0.1959
    104  CA        23.0400   36.7150  -12.9200 C.3   180  TRP180      0.1771
    105  C         21.5290   36.6740  -12.9200 C.2   180  TRP180      0.2620
    106  O         20.9070   36.3600  -11.9140 O.2   180  TRP180     -0.2715
    107  CB        23.6000   35.3430  -13.3210 C.3   180  TRP180      0.0590
    108  CG        25.0610   35.4230  -13.5710 C.ar  180  TRP180      0.0006
    109  CD1       26.0530   35.3220  -12.6420 C.ar  180  TRP180      0.0946
    110  CD2       25.6950   35.8140  -14.7920 C.ar  180  TRP180      0.0152
    111  NE1       27.2620   35.6400  -13.2030 N.ar  180  TRP180     -0.2442
    112  CE2       27.0710   35.9480  -14.5230 C.ar  180  TRP180      0.0810
    113  CE3       25.2320   36.0730  -16.0870 C.ar  180  TRP180      0.0012
    114  CZ2       27.9940   36.3350  -15.5060 C.ar  180  TRP180      0.0191
    115  CZ3       26.1470   36.4550  -17.0620 C.ar  180  TRP180      0.0001
    116  CH2       27.5120   36.5830  -16.7650 C.ar  180  TRP180      0.0015
    117  N         20.9510   36.9840  -14.0780 N.am  181  ARG181     -0.1963
    118  CA        19.4990   37.0110  -14.2690 C.3   181  ARG181      0.1729
    119  C         19.0910   36.3230  -15.5770 C.2   181  ARG181      0.2616
    120  O         19.9160   36.1590  -16.4760 O.2   181  ARG181     -0.2715
    121  CB        19.0270   38.4710  -14.2620 C.3   181  ARG181      0.0348
    122  CG        17.5920   38.7240  -14.6830 C.3   181  ARG181      0.0492
    123  CD        17.1690   40.1200  -14.2400 C.3   181  ARG181      0.2205
    124  NE        18.1380   41.1420  -14.6380 N.pl3 181  ARG181     -0.0865
    125  CZ        18.3440   41.5390  -15.8940 C.cat 181  ARG181      0.5346
    126  NH1       17.6450   41.0020  -16.8840 N.pl3 181  ARG181      0.1354
    127  NH2       19.2500   42.4710  -16.1670 N.pl3 181  ARG181      0.1354
    128  N         17.8290   35.9030  -15.6640 N.am  182  ASP182     -0.1958
    129  CA        17.2810   35.2530  -16.8580 C.3   182  ASP182      0.1825
    130  C         16.0420   36.0610  -17.2410 C.2   182  ASP182      0.2464
    131  O         15.2150   36.3720  -16.3860 O.2   182  ASP182     -0.2730
    132  CB        16.8870   33.8020  -16.5520 C.3   182  ASP182      0.1450
    133  CG        16.4410   33.0330  -17.7930 C.2   182  ASP182      0.3671
    134  OD1       15.8910   31.9270  -17.6290 O.co2 182  ASP182     -0.2456
    135  OD2       16.6440   33.5180  -18.9290 O.co2 182  ASP182     -0.2456
    136  N         15.8950   36.4090  -18.5330 N.am  183  PRO183     -0.2727
    137  CA        14.7600   37.1930  -19.0440 C.3   183  PRO183      0.1402
    138  C         13.3600   36.6220  -18.8440 C.2   183  PRO183      0.2269
    139  O         12.3850   37.3740  -18.7930 O.2   183  PRO183     -0.2865
    140  CB        15.0930   37.3480  -20.5210 C.3   183  PRO183      0.0296
    141  CG        16.5930   37.3120  -20.5310 C.3   183  PRO183      0.0237
    142  CD        16.8890   36.1860  -19.5970 C.3   183  PRO183      0.0939
    143  N         18.6470   34.2670  -10.6250 N.3   188  TRP188     -0.1241
    144  CA        18.9820   33.0110   -9.9560 C.3   188  TRP188      0.1605
    145  C         18.5840   33.0200   -8.4890 C.2   188  TRP188      0.2264
    146  O         17.8500   32.1510   -8.0010 O.2   188  TRP188     -0.2867
    147  CB        20.4850   32.7750  -10.0140 C.3   188  TRP188      0.0550
    148  CG        21.0400   32.4810  -11.3730 C.ar  188  TRP188      0.0003
    149  CD1       20.3410   32.2330  -12.5290 C.ar  188  TRP188      0.0946
    150  CD2       22.4210   32.3100  -11.6970 C.ar  188  TRP188      0.0152
    151  NE1       21.2090   31.9100  -13.5450 N.ar  188  TRP188     -0.2442
    152  CE2       22.4920   31.9510  -13.0600 C.ar  188  TRP188      0.0810
    153  CE3       23.6080   32.4210  -10.9640 C.ar  188  TRP188      0.0012
    154  CZ2       23.7080   31.7010  -13.7020 C.ar  188  TRP188      0.0191
    155  CZ3       24.8090   32.1730  -11.6010 C.ar  188  TRP188      0.0001
    156  CH2       24.8510   31.8150  -12.9570 C.ar  188  TRP188      0.0015
    157  N         25.0510   28.0040  -13.5570 N.3   221  GLY221     -0.1210
    158  CA        25.6580   28.5320  -14.7720 C.3   221  GLY221      0.1956
    159  C         27.1100   28.2790  -15.0790 C.2   221  GLY221      0.2612
    160  O         27.7750   27.4900  -14.4100 O.2   221  GLY221     -0.2717
    161  N         27.5980   28.9400  -16.1240 N.am  222  ILE222     -0.1965
    162  CA        28.9970   28.8010  -16.5140 C.3   222  ILE222      0.1727
    163  C         29.7190   29.7800  -15.6110 C.2   222  ILE222      0.2616
    164  O         30.7970   29.4980  -15.0930 O.2   222  ILE222     -0.2715
    165  CB        29.2300   29.1970  -18.0000 C.3   222  ILE222      0.0290
    166  CG1       28.3020   28.3830  -18.9090 C.3   222  ILE222      0.0022
    167  CG2       30.6910   28.9600  -18.3860 C.3   222  ILE222      0.0023
    168  CD1       28.4290   28.7310  -20.3770 C.3   222  ILE222      0.0001
    169  N         29.1030   30.9410  -15.4300 N.am  223  TYR223     -0.1974
    170  CA        29.6590   31.9590  -14.5650 C.3   223  TYR223      0.1639
    171  C         29.1120   31.7090  -13.1730 C.2   223  TYR223      0.2290
    172  O         27.9590   31.3170  -13.0100 O.2   223  TYR223     -0.2864
    173  CB        29.2870   33.3440  -15.0600 C.3   223  TYR223      0.0560
    174  CG        30.1200   33.7960  -16.2410 C.ar  223  TYR223     -0.0198
    175  CD1       29.5980   33.7980  -17.5400 C.ar  223  TYR223     -0.0009
    176  CD2       31.4170   34.2470  -16.0560 C.ar  223  TYR223     -0.0009
    177  CE1       30.3590   34.2510  -18.6260 C.ar  223  TYR223      0.0417
    178  CE2       32.1860   34.6980  -17.1240 C.ar  223  TYR223      0.0417
    179  CZ        31.6570   34.7030  -18.4060 C.ar  223  TYR223      0.1957
    180  OH        32.4240   35.1810  -19.4490 O.3   223  TYR223     -0.2866
@<TRIPOS>BOND
     1    19    17    1
     2    17    18    1
     3    17    16    2
     4    16    15    1
     5    15    14    1
     6    14    13    1
     7    25    24    1
     8   141   140    1
     9   141   142    1
    10   140   137    1
    11    43    42    1
    12   168   166    1
    13    24    26    1
    14    24    21    1
    15    13    10    1
    16    44    42    1
    17   142   136    1
    18    42    39    1
    19    20    21    1
    20    20    11   am
    21    10    11    1
    22    10     9    1
    23   180   179    1
    24    89    88    1
    25     4     3    2
    26   137   138    1
    27   137   136    1
    28   135   133   ar
    29   166   165    1
    30    21    22    1
    31   138   139    2
    32    23    22    2
    33    11    12    2
    34     9     3   am
    35     3     2    1
    36   177   179   ar
    37   177   175   ar
    38   136   130   am
    39     1     2    1
    40   179   178   ar
    41   167   165    1
    42    22    27   am
    43    39    38    1
    44    39    40    1
    45   165   162    1
    46    88    87    1
    47     2     5    1
    48   133   134   ar
    49   133   132    1
    50    38    29   am
    51    87    86    1
    52   175   174   ar
    53   130   129    1
    54   130   131    2
    55    40    41    2
    56   178   176   ar
    57   115   116   ar
    58   115   113   ar
    59    27    28    1
    60   126   125    1
    61   129   132    1
    62   129   128    1
    63   116   114   ar
    64   162   161    1
    65   162   163    1
    66   120   119    2
    67     5     6    1
    68    29    28    1
    69    29    30    2
    70   174   176   ar
    71   174   173    1
    72   127   125    1
    73    28    31    1
    74   161   159   am
    75   113   110   ar
    76    86    85    1
    77   125   124    2
    78   128   119   am
    79   163   169   am
    80   163   164    2
    81    85    82    1
    82   119   118    1
    83   114   112   ar
    84    60    59   ar
    85    60    58   ar
    86     6     8    1
    87     6     7    1
    88   169   170    1
    89    59    57   ar
    90   159   158    1
    91   159   160    2
    92   173   170    1
    93   110   112   ar
    94   110   108   ar
    95   158   157    1
    96   122   121    1
    97   122   123    1
    98    31    32    1
    99   124   123    1
   100   170   171    1
   101   112   111   ar
   102    58    56   ar
   103    32    33    1
   104   118   121    1
   105   118   117    1
   106    84    83    2
   107   117   105   am
   108    82    81    1
   109    82    83    1
   110    57    56   ar
   111   154   152   ar
   112   154   156   ar
   113   108   107    1
   114   108   109   ar
   115   151   152   ar
   116   151   149   ar
   117    56    55    1
   118    95    94    1
   119   107   104    1
   120    96    94    1
   121   111   109   ar
   122   171   172    2
   123   152   150   ar
   124   156   155   ar
   125    33    34    1
   126   104   105    1
   127   104   103    1
   128   105   106    2
   129    94    91    1
   130   149   148   ar
   131   100    99    2
   132    34    35    2
   133    55    52    1
   134    80    79    1
   135   150   148   ar
   136   150   153   ar
   137   103    99   am
   138    35    37    1
   139    35    36    1
   140   155   153   ar
   141    99    98    1
   142   148   147    1
   143    91    92    1
   144    91    90    1
   145    52    51    1
   146    52    53    1
   147    92    97   am
   148    92    93    2
   149    97    98    1
   150   143   144    1
   151    51    47   am
   152    79    76    1
   153    98   101    1
   154   147   144    1
   155   144   145    1
   156    47    46    1
   157    47    48    2
   158    53    54    2
   159    50    49    1
   160    46    49    1
   161    46    45    1
   162   101   102    1
   163    76    75    1
   164    76    77    1
   165    68    67    2
   166    75    72   am
   167   145   146    2
   168    77    78    2
   169    67    66    1
   170    67    69   am
   171    72    71    1
   172    72    73    2
   173    66    65    1
   174    71    74    1
   175    71    70    1
   176    64    63    2
   177    70    63   am
   178    63    62    1
   179    65    62    1
   180    62    61    1
