@<TRIPOS>MOLECULE
tmp/1jyiA00.pdb
 161 162 0 0 0
SMALL
GASTEIGER

@<TRIPOS>ATOM
      1  N         70.5610   36.1210  116.0260 N.3    11  THR11      -0.1218
      2  CA        70.5560   34.8120  116.6640 C.3    11  THR11       0.1862
      3  C         71.6280   33.8420  116.1730 C.2    11  THR11       0.2287
      4  O         71.8730   32.8240  116.8170 O.2    11  THR11      -0.2866
      5  CB        69.1920   34.1090  116.5090 C.3    11  THR11       0.1770
      6  OG1       68.8260   34.0600  115.1230 O.3    11  THR11      -0.2211
      7  CG2       68.1260   34.8380  117.3010 C.3    11  THR11       0.0375
      8  N         78.9580   34.6290  119.0510 N.3    22  TYR22      -0.1228
      9  CA        77.7960   34.2290  119.8560 C.3    22  TYR22       0.1721
     10  C         76.5950   35.1660  119.6570 C.2    22  TYR22       0.2437
     11  O         76.7480   36.2820  119.1500 O.2    22  TYR22      -0.2733
     12  CB        78.1980   34.2370  121.3320 C.3    22  TYR22       0.0547
     13  CG        78.9020   35.5210  121.7240 C.ar   22  TYR22      -0.0200
     14  CD1       78.2510   36.7490  121.6300 C.ar   22  TYR22      -0.0009
     15  CD2       80.2340   35.5190  122.1350 C.ar   22  TYR22      -0.0009
     16  CE1       78.9010   37.9350  121.9260 C.ar   22  TYR22       0.0417
     17  CE2       80.8950   36.7060  122.4350 C.ar   22  TYR22       0.0417
     18  CZ        80.2180   37.9080  122.3250 C.ar   22  TYR22       0.1957
     19  OH        80.8480   39.0950  122.6040 O.3    22  TYR22      -0.2866
     20  N         75.3830   34.7240  120.0550 N.am   23  PRO23      -0.2729
     21  CA        74.1910   35.5680  119.9070 C.3    23  PRO23       0.1401
     22  C         74.4820   36.9540  120.4710 C.2    23  PRO23       0.2269
     23  O         75.1410   37.0890  121.4990 O.2    23  PRO23      -0.2865
     24  CB        73.1400   34.8250  120.7260 C.3    23  PRO23       0.0296
     25  CG        73.5030   33.3960  120.4930 C.3    23  PRO23       0.0237
     26  CD        75.0220   33.4160  120.6310 C.3    23  PRO23       0.0939
     27  N         76.9040   40.8410  123.9000 N.3    39  LYS39      -0.1231
     28  CA        76.4940   39.4570  124.0710 C.3    39  LYS39       0.1693
     29  C         75.0370   39.4190  124.5310 C.2    39  LYS39       0.2592
     30  O         74.5810   40.2950  125.2570 O.2    39  LYS39      -0.2718
     31  CB        77.4060   38.7710  125.0860 C.3    39  LYS39       0.0285
     32  CG        77.3850   37.2630  125.0210 C.3    39  LYS39       0.0035
     33  CD        78.4780   36.6920  125.8950 C.3    39  LYS39       0.0206
     34  CE        78.5310   35.1720  125.8030 C.3    39  LYS39       0.1093
     35  NZ        77.2810   34.4920  126.2760 N.3    39  LYS39      -0.1314
     36  N         74.3070   38.4070  124.0890 N.am   40  TRP40      -0.1962
     37  CA        72.9050   38.2810  124.4420 C.3    40  TRP40       0.1771
     38  C         72.5740   36.8150  124.6940 C.2    40  TRP40       0.2620
     39  O         72.7860   35.9670  123.8270 O.2    40  TRP40      -0.2715
     40  CB        72.0340   38.8760  123.3080 C.3    40  TRP40       0.0590
     41  CG        70.5490   38.5320  123.3580 C.ar   40  TRP40       0.0006
     42  CD1       69.7500   38.5090  124.4650 C.ar   40  TRP40       0.0946
     43  CD2       69.7170   38.1140  122.2590 C.ar   40  TRP40       0.0152
     44  NE1       68.4860   38.0940  124.1320 N.ar   40  TRP40      -0.2442
     45  CE2       68.4330   37.8450  122.7840 C.ar   40  TRP40       0.0810
     46  CE3       69.9330   37.9400  120.8780 C.ar   40  TRP40       0.0012
     47  CZ2       67.3640   37.4020  121.9800 C.ar   40  TRP40       0.0191
     48  CZ3       68.8650   37.5000  120.0750 C.ar   40  TRP40       0.0001
     49  CH2       67.6010   37.2390  120.6350 C.ar   40  TRP40       0.0015
     50  N         72.0780   36.5240  125.8960 N.am   41  ASN41      -0.1958
     51  CA        71.7060   35.1620  126.2710 C.3    41  ASN41       0.1819
     52  C         70.3350   34.7890  125.7230 C.2    41  ASN41       0.2621
     53  O         69.3720   34.6100  126.4710 O.2    41  ASN41      -0.2715
     54  CB        71.7040   35.0030  127.7920 C.3    41  ASN41       0.1195
     55  CG        73.0950   34.8250  128.3580 C.2    41  ASN41       0.2630
     56  OD1       73.7880   33.8560  128.0420 O.2    41  ASN41      -0.2716
     57  ND2       73.5130   35.7590  129.2030 N.am   41  ASN41      -0.0877
     58  N         70.2670   34.6790  124.4030 N.am   42  MET42      -0.1963
     59  CA        69.0440   34.3300  123.6940 C.3    42  MET42       0.1736
     60  C         68.3930   33.1190  124.3750 C.2    42  MET42       0.2616
     61  O         69.0260   32.0820  124.5110 O.2    42  MET42      -0.2715
     62  CB        69.4140   34.0250  122.2300 C.3    42  MET42       0.0427
     63  CG        68.2590   33.8760  121.2770 C.3    42  MET42       0.0599
     64  SD        67.4990   32.2810  121.4170 S.3    42  MET42      -0.1393
     65  CE        67.3670   31.8240  119.7000 C.3    42  MET42       0.0692
     66  N         67.1470   33.2470  124.8280 N.am   43  GLN43      -0.1963
     67  CA        66.4740   32.1180  125.4840 C.3    43  GLN43       0.1733
     68  C         65.3960   31.4680  124.6200 C.2    43  GLN43       0.2616
     69  O         64.2150   31.7820  124.7320 O.2    43  GLN43      -0.2715
     70  CB        65.8610   32.5530  126.8080 C.3    43  GLN43       0.0408
     71  CG        66.8420   32.5630  127.9420 C.3    43  GLN43       0.0908
     72  CD        66.1670   32.8140  129.2630 C.2    43  GLN43       0.2608
     73  OE1       65.7400   33.9290  129.5460 O.2    43  GLN43      -0.2717
     74  NE2       66.0490   31.7720  130.0770 N.am   43  GLN43      -0.0878
     75  N         65.8270   30.5350  123.7790 N.am   44  ASN44      -0.1958
     76  CA        64.9520   29.8290  122.8530 C.3    44  ASN44       0.1819
     77  C         63.6170   29.3750  123.4330 C.2    44  ASN44       0.2622
     78  O         63.5740   28.7100  124.4670 O.2    44  ASN44      -0.2715
     79  CB        65.7060   28.6280  122.2770 C.3    44  ASN44       0.1195
     80  CG        65.0200   28.0330  121.0680 C.2    44  ASN44       0.2630
     81  OD1       63.8820   27.5770  121.1440 O.2    44  ASN44      -0.2716
     82  ND2       65.7180   28.0230  119.9420 N.am   44  ASN44      -0.0877
     83  N         62.5320   29.7410  122.7530 N.am   45  GLY45      -0.1940
     84  CA        61.1990   29.3560  123.1830 C.3    45  GLY45       0.2014
     85  C         60.5050   30.2700  124.1840 C.2    45  GLY45       0.2638
     86  O         59.3240   30.0770  124.4660 O.2    45  GLY45      -0.2714
     87  N         61.2190   31.2600  124.7180 N.am   46  LYS46      -0.1977
     88  CA        60.6480   32.1780  125.7040 C.3    46  LYS46       0.1596
     89  C         60.3390   33.5640  125.1300 C.2    46  LYS46       0.2287
     90  O         61.0550   34.0630  124.2640 O.2    46  LYS46      -0.2864
     91  CB        61.6110   32.3380  126.8850 C.3    46  LYS46       0.0298
     92  CG        62.3600   31.0760  127.2740 C.3    46  LYS46       0.0038
     93  CD        61.4180   29.9100  127.5520 C.3    46  LYS46       0.0206
     94  CE        62.1800   28.6670  128.0080 C.3    46  LYS46       0.1093
     95  NZ        63.2160   28.2180  127.0280 N.3    46  LYS46      -0.1314
     96  N         62.7180   37.3350  134.6980 N.3    69  ASN69      -0.1225
     97  CA        63.5520   36.6130  135.6570 C.3    69  ASN69       0.1785
     98  C         64.9210   36.2450  135.0970 C.2    69  ASN69       0.2597
     99  O         65.6240   35.3960  135.6520 O.2    69  ASN69      -0.2718
    100  CB        62.8290   35.3390  136.1010 C.3    69  ASN69       0.1169
    101  CG        61.3870   35.5940  136.5070 C.2    69  ASN69       0.2627
    102  OD1       60.6070   34.6570  136.6760 O.2    69  ASN69      -0.2716
    103  ND2       61.0260   36.8660  136.6640 N.am   69  ASN69      -0.0877
    104  N         65.2860   36.8790  133.9860 N.am   70  ALA70      -0.1966
    105  CA        66.5710   36.6340  133.3410 C.3    70  ALA70       0.1728
    106  C         67.3240   37.9550  133.2920 C.2    70  ALA70       0.2616
    107  O         66.8230   38.9750  133.7700 O.2    70  ALA70      -0.2715
    108  CB        66.3590   36.0910  131.9330 C.3    70  ALA70       0.0334
    109  N         68.5230   37.9470  132.7170 N.am   71  ASP71      -0.1971
    110  CA        69.2900   39.1760  132.6490 C.3    71  ASP71       0.1709
    111  C         68.9720   40.0360  131.4430 C.2    71  ASP71       0.2293
    112  O         68.2090   39.6400  130.5550 O.2    71  ASP71      -0.2864
    113  CB        70.7850   38.8910  132.7120 C.3    71  ASP71       0.1436
    114  CG        71.3500   39.1150  134.0970 C.2    71  ASP71       0.3671
    115  OD1       71.1510   38.2480  134.9750 O.co2  71  ASP71      -0.2456
    116  OD2       71.9730   40.1750  134.3150 O.co2  71  ASP71      -0.2456
    117  N         61.4270   30.8050  118.4170 N.3   200  LYS200     -0.1231
    118  CA        61.3700   29.3810  118.7400 C.3   200  LYS200      0.1693
    119  C         62.0890   28.5660  117.6710 C.2   200  LYS200      0.2593
    120  O         61.8810   28.7670  116.4760 O.2   200  LYS200     -0.2718
    121  CB        59.9010   28.9620  118.8300 C.3   200  LYS200      0.0285
    122  CG        59.6220   27.5320  119.2440 C.3   200  LYS200      0.0035
    123  CD        58.1810   27.1770  118.8610 C.3   200  LYS200      0.0206
    124  CE        57.7700   25.7630  119.2600 C.3   200  LYS200      0.1093
    125  NZ        57.5100   25.6660  120.7200 N.3   200  LYS200     -0.1314
    126  N         62.9390   27.6440  118.1020 N.am  201  SER201     -0.1939
    127  CA        63.6770   26.8190  117.1590 C.3   201  SER201      0.2040
    128  C         63.6090   25.3420  117.5420 C.2   201  SER201      0.2485
    129  O         64.2080   24.9250  118.5280 O.2   201  SER201     -0.2729
    130  CB        65.1320   27.2840  117.1140 C.3   201  SER201      0.2129
    131  OG        65.8650   26.5790  116.1340 O.3   201  SER201     -0.2179
    132  N         62.8650   24.5310  116.7690 N.am  202  PRO202     -0.2726
    133  CA        62.7330   23.0930  117.0500 C.3   202  PRO202      0.1402
    134  C         64.0160   22.3380  116.7070 C.2   202  PRO202      0.2269
    135  O         64.3930   21.3770  117.3830 O.2   202  PRO202     -0.2865
    136  CB        61.5730   22.6640  116.1470 C.3   202  PRO202      0.0296
    137  CG        60.8120   23.9280  115.9260 C.3   202  PRO202      0.0237
    138  CD        61.9120   24.9370  115.7270 C.3   202  PRO202      0.0939
    139  N         66.7880   23.2540  117.1630 N.3   204  SER204     -0.1202
    140  CA        67.7940   23.7000  118.1310 C.3   204  SER204      0.2020
    141  C         68.8840   24.6610  117.6460 C.2   204  SER204      0.2619
    142  O         69.7290   25.0890  118.4350 O.2   204  SER204     -0.2717
    143  CB        68.4580   22.4800  118.7750 C.3   204  SER204      0.2103
    144  OG        67.5010   21.6890  119.4530 O.3   204  SER204     -0.2182
    145  N         68.8540   25.0120  116.3650 N.am  205  HIS205     -0.1961
    146  CA        69.8550   25.8990  115.7860 C.3   205  HIS205      0.1772
    147  C         69.1470   27.1010  115.1690 C.2   205  HIS205      0.2462
    148  O         68.8220   27.0880  113.9810 O.2   205  HIS205     -0.2730
    149  CB        70.6310   25.1340  114.7110 C.3   205  HIS205      0.0785
    150  CG        72.0830   25.4850  114.6360 C.ar  205  HIS205      0.0821
    151  ND1       72.9460   25.3090  115.6970 N.ar  205  HIS205     -0.2267
    152  CD2       72.8320   25.9700  113.6190 C.ar  205  HIS205      0.1154
    153  CE1       74.1650   25.6720  115.3330 C.ar  205  HIS205      0.1986
    154  NE2       74.1230   26.0760  114.0760 N.ar  205  HIS205     -0.2212
    155  N         68.9070   28.1590  115.9680 N.am  206  PRO206     -0.2727
    156  CA        68.2330   29.3980  115.5550 C.3   206  PRO206      0.1402
    157  C         69.0130   30.2600  114.5660 C.2   206  PRO206      0.2269
    158  O         70.2400   30.3140  114.6030 O.2   206  PRO206     -0.2865
    159  CB        68.0320   30.1560  116.8740 C.3   206  PRO206      0.0296
    160  CG        68.2240   29.1210  117.9460 C.3   206  PRO206      0.0237
    161  CD        69.3050   28.2510  117.3790 C.3   206  PRO206      0.0939
@<TRIPOS>BOND
     1   152   154   ar
     2   152   150   ar
     3   148   147    2
     4   154   153   ar
     5   157   158    2
     6   157   156    1
     7   150   149    1
     8   150   151   ar
     9   149   146    1
    10     6     5    1
    11   147   146    1
    12   147   155   am
    13   153   151   ar
    14   156   155    1
    15   156   159    1
    16   138   137    1
    17   138   132    1
    18   146   145    1
    19   137   136    1
    20   155   161    1
    21     1     2    1
    22   131   130    1
    23   136   133    1
    24     3     2    1
    25     3     4    2
    26   145   141   am
    27   120   119    2
    28     5     2    1
    29     5     7    1
    30   134   133    1
    31   134   135    2
    32   132   133    1
    33   132   128   am
    34   159   160    1
    35   130   127    1
    36   127   128    1
    37   127   126    1
    38   139   140    1
    39   161   160    1
    40   128   129    2
    41   141   140    1
    42   141   142    2
    43   119   126   am
    44   119   118    1
    45   140   143    1
    46   117   118    1
    47   118   121    1
    48   143   144    1
    49   121   122    1
    50   123   122    1
    51   123   124    1
    52     8     9    1
    53    11    10    2
    54   124   125    1
    55    10     9    1
    56    10    20   am
    57    65    64    1
    58     9    12    1
    59    21    20    1
    60    21    22    1
    61    21    24    1
    62    82    80   am
    63    20    26    1
    64    48    49   ar
    65    48    46   ar
    66    22    23    2
    67    25    26    1
    68    25    24    1
    69    49    47   ar
    70    46    43   ar
    71    80    81    2
    72    80    79    1
    73    63    64    1
    74    63    62    1
    75    12    13    1
    76    14    13   ar
    77    14    16   ar
    78    13    15   ar
    79    16    18   ar
    80    47    45   ar
    81    15    17   ar
    82    62    59    1
    83    43    45   ar
    84    43    41   ar
    85    79    76    1
    86    18    17   ar
    87    18    19    1
    88    83    84    1
    89    83    77   am
    90    45    44   ar
    91    76    77    1
    92    76    75    1
    93    84    85    1
    94    40    41    1
    95    40    37    1
    96    41    42   ar
    97    77    78    2
    98    59    60    1
    99    59    58    1
   100    75    68   am
   101    39    38    2
   102    27    28    1
   103    28    29    1
   104    28    31    1
   105    36    37    1
   106    36    29   am
   107    44    42   ar
   108    85    86    2
   109    85    87   am
   110    90    89    2
   111    60    61    2
   112    60    66   am
   113    58    52   am
   114    37    38    1
   115    29    30    2
   116    68    69    2
   117    68    67    1
   118    38    50   am
   119    87    88    1
   120    66    67    1
   121    32    31    1
   122    32    33    1
   123    89    88    1
   124    67    70    1
   125    88    91    1
   126    52    51    1
   127    52    53    2
   128    34    33    1
   129    34    35    1
   130    50    51    1
   131    51    54    1
   132    70    71    1
   133    91    92    1
   134    95    94    1
   135    92    93    1
   136    93    94    1
   137    54    55    1
   138    71    72    1
   139    56    55    2
   140    55    57   am
   141    72    73    2
   142    72    74   am
   143   112   111    2
   144   111   110    1
   145   108   105    1
   146   110   113    1
   147   110   109    1
   148   113   114    1
   149   109   106   am
   150   106   105    1
   151   106   107    2
   152   105   104    1
   153   104    98   am
   154   114   116   ar
   155   114   115   ar
   156    96    97    1
   157    98    99    2
   158    98    97    1
   159    97   100    1
   160   100   101    1
   161   101   103   am
   162   101   102    2
