@<TRIPOS>MOLECULE
tmp/1jylD00.pdb
 182 173 0 0 0
SMALL
GASTEIGER

@<TRIPOS>ATOM
      1  N        -20.7440   18.8130   53.3260 N.3     8  LEU8       -0.1231
      2  CA       -20.1570   20.1010   53.6830 C.3     8  LEU8        0.1693
      3  C        -21.2440   21.1290   53.5690 C.2     8  LEU8        0.2592
      4  O        -21.6990   21.4320   52.4680 O.2     8  LEU8       -0.2718
      5  CB       -19.0250   20.4350   52.7190 C.3     8  LEU8        0.0284
      6  CG       -17.9650   19.3290   52.6180 C.3     8  LEU8        0.0019
      7  CD1      -16.9410   19.6670   51.5620 C.3     8  LEU8        0.0001
      8  CD2      -17.2800   19.1540   53.9680 C.3     8  LEU8        0.0001
      9  N        -21.6780   21.6630   54.7050 N.am    9  ALA9       -0.1966
     10  CA       -22.7380   22.6690   54.7030 C.3     9  ALA9        0.1728
     11  C        -22.5200   23.8240   55.6920 C.2     9  ALA9        0.2616
     12  O        -23.4990   24.4440   56.1420 O.2     9  ALA9       -0.2715
     13  CB       -24.0770   21.9930   54.9980 C.3     9  ALA9        0.0334
     14  N        -21.2580   24.1430   55.9890 N.am   10  ALA10      -0.1963
     15  CA       -20.9450   25.1770   56.9820 C.3    10  ALA10       0.1728
     16  C        -20.8780   26.6280   56.5260 C.2    10  ALA10       0.2616
     17  O        -21.1240   27.5300   57.3400 O.2    10  ALA10      -0.2715
     18  CB       -19.6270   24.8150   57.6780 C.3    10  ALA10       0.0334
     19  N        -20.5340   26.8370   55.2460 N.am   11  GLY11      -0.1955
     20  CA       -20.3680   28.1680   54.6690 C.3    11  GLY11       0.1869
     21  C        -21.4470   29.2080   54.8530 C.2    11  GLY11       0.2309
     22  O        -22.5960   28.8690   55.1040 O.2    11  GLY11      -0.2863
     23  N        -27.5740   28.0830   53.1420 N.3    25  LYS25      -0.1245
     24  CA       -27.7180   27.6840   51.7410 C.3    25  LYS25       0.1561
     25  C        -28.2810   26.2720   51.5870 C.2    25  LYS25       0.2260
     26  O        -29.1930   26.0410   50.7960 O.2    25  LYS25      -0.2867
     27  CB       -26.3600   27.7500   51.0590 C.3    25  LYS25       0.0271
     28  CG       -26.3940   27.3950   49.6020 C.3    25  LYS25       0.0035
     29  CD       -25.4240   28.2780   48.8410 C.3    25  LYS25       0.0206
     30  CE       -23.9960   27.9160   49.2120 C.3    25  LYS25       0.1093
     31  NZ       -23.1140   27.7590   48.0230 N.3    25  LYS25      -0.1314
     32  N        -21.5580   18.6500   58.2830 N.3    54  ILE54      -0.1245
     33  CA       -20.7430   19.6820   58.9200 C.3    54  ILE54       0.1561
     34  C        -21.5190   20.9930   58.8500 C.2    54  ILE54       0.2260
     35  O        -21.8560   21.4590   57.7760 O.2    54  ILE54      -0.2867
     36  CB       -19.4020   19.8850   58.2210 C.3    54  ILE54       0.0252
     37  CG1      -18.7560   18.5350   57.9000 C.3    54  ILE54       0.0019
     38  CG2      -18.4890   20.7320   59.1200 C.3    54  ILE54       0.0019
     39  CD1      -18.0820   17.8570   59.0840 C.3    54  ILE54       0.0001
     40  N        -18.4600   23.4100   63.0750 N.3    76  ASN76      -0.1240
     41  CA       -17.1950   24.0220   62.6630 C.3    76  ASN76       0.1653
     42  C        -17.3010   25.4570   63.1940 C.2    76  ASN76       0.2266
     43  O        -18.0730   26.2570   62.6640 O.2    76  ASN76      -0.2867
     44  CB       -17.1050   24.0410   61.1370 C.3    76  ASN76       0.1155
     45  CG       -15.7760   24.5460   60.6400 C.2    76  ASN76       0.2627
     46  OD1      -14.9910   25.1010   61.4040 O.2    76  ASN76      -0.2716
     47  ND2      -15.5080   24.3520   59.3510 N.am   76  ASN76      -0.0877
     48  N        -16.2520   28.5450   60.7240 N.3    79  TYR79      -0.1241
     49  CA       -16.8850   28.4890   59.4250 C.3    79  TYR79       0.1605
     50  C        -16.7430   29.7820   58.6200 C.2    79  TYR79       0.2264
     51  O        -16.9320   29.7790   57.4030 O.2    79  TYR79      -0.2867
     52  CB       -18.3510   28.1360   59.5750 C.3    79  TYR79       0.0534
     53  CG       -19.1530   29.1880   60.2660 C.ar   79  TYR79      -0.0201
     54  CD1      -19.1910   29.2590   61.6520 C.ar   79  TYR79      -0.0009
     55  CD2      -19.9400   30.0700   59.5410 C.ar   79  TYR79      -0.0009
     56  CE1      -20.0070   30.1770   62.2980 C.ar   79  TYR79       0.0417
     57  CE2      -20.7570   30.9900   60.1810 C.ar   79  TYR79       0.0417
     58  CZ       -20.7870   31.0280   61.5590 C.ar   79  TYR79       0.1957
     59  OH       -21.6450   31.8710   62.2010 O.3    79  TYR79      -0.2866
     60  N        -12.0690   30.0950   58.1390 N.3    82  TYR82      -0.1227
     61  CA       -11.3900   29.3670   57.0610 C.3    82  TYR82       0.1736
     62  C        -12.3240   28.8950   55.9600 C.2    82  TYR82       0.2595
     63  O        -13.5360   29.1260   56.0010 O.2    82  TYR82      -0.2718
     64  CB       -10.6600   28.1470   57.6020 C.3    82  TYR82       0.0548
     65  CG        -9.9350   28.4190   58.8660 C.ar   82  TYR82      -0.0200
     66  CD1       -8.9380   29.3710   58.9130 C.ar   82  TYR82      -0.0009
     67  CD2      -10.2330   27.7180   60.0170 C.ar   82  TYR82      -0.0009
     68  CE1       -8.2510   29.6200   60.0750 C.ar   82  TYR82       0.0417
     69  CE2       -9.5540   27.9560   61.1890 C.ar   82  TYR82       0.0417
     70  CZ        -8.5620   28.9100   61.2090 C.ar   82  TYR82       0.1957
     71  OH        -7.8700   29.1650   62.3630 O.3    82  TYR82      -0.2866
     72  N        -11.7370   28.2440   54.9620 N.am   83  ASN83      -0.1960
     73  CA       -12.5120   27.6990   53.8580 C.3    83  ASN83       0.1819
     74  C        -12.8130   26.2470   54.2220 C.2    83  ASN83       0.2621
     75  O        -12.1750   25.6880   55.1180 O.2    83  ASN83      -0.2715
     76  CB       -11.7340   27.7620   52.5430 C.3    83  ASN83       0.1195
     77  CG       -12.6550   27.7600   51.3380 C.2    83  ASN83       0.2630
     78  OD1      -13.8820   27.7210   51.4860 O.2    83  ASN83      -0.2716
     79  ND2      -12.0750   27.8020   50.1410 N.am   83  ASN83      -0.0877
     80  N        -13.7620   25.6320   53.5260 N.am   84  ASN84      -0.1972
     81  CA       -14.1370   24.2680   53.8530 C.3    84  ASN84       0.1688
     82  C        -13.0480   23.1920   54.0090 C.2    84  ASN84       0.2292
     83  O        -13.3650   22.0510   54.3210 O.2    84  ASN84      -0.2864
     84  CB       -15.3220   23.8140   52.9550 C.3    84  ASN84       0.1181
     85  CG       -14.9230   23.2790   51.5680 C.2    84  ASN84       0.2629
     86  OD1      -13.7660   22.9320   51.2940 O.2    84  ASN84      -0.2716
     87  ND2      -15.9300   23.1890   50.6880 N.am   84  ASN84      -0.0877
     88  N        -13.4260   22.3520   57.5500 N.3    87  SER87      -0.1217
     89  CA       -14.6720   21.6330   57.8050 C.3    87  SER87       0.1889
     90  C        -14.4460   20.1210   57.6640 C.2    87  SER87       0.2288
     91  O        -14.9050   19.3280   58.4780 O.2    87  SER87      -0.2866
     92  CB       -15.7300   22.0610   56.8040 C.3    87  SER87       0.2089
     93  OG       -16.3910   23.2270   57.2340 O.3    87  SER87      -0.2183
     94  N        -20.9790   18.6450   48.5030 N.3   102  ASP102     -0.1225
     95  CA       -21.1460   20.0860   48.6770 C.3   102  ASP102      0.1805
     96  C        -22.6410   20.3020   48.8040 C.2   102  ASP102      0.2598
     97  O        -23.3710   20.1770   47.8260 O.2   102  ASP102     -0.2718
     98  CB       -20.6410   20.8660   47.4580 C.3   102  ASP102      0.1424
     99  CG       -19.1330   20.7220   47.2250 C.2   102  ASP102      0.3668
    100  OD1      -18.3890   20.2670   48.1230 O.co2 102  ASP102     -0.2456
    101  OD2      -18.6860   21.0820   46.1130 O.co2 102  ASP102     -0.2456
    102  N        -23.0950   20.6460   50.0000 N.am  103  ALA103     -0.1966
    103  CA       -24.5210   20.8260   50.2620 C.3   103  ALA103      0.1728
    104  C        -25.2980   21.7480   49.3410 C.2   103  ALA103      0.2616
    105  O        -26.5080   21.6160   49.2120 O.2   103  ALA103     -0.2715
    106  CB       -24.7150   21.2830   51.6990 C.3   103  ALA103      0.0334
    107  N        -24.6220   22.6890   48.7070 N.am  104  ASP104     -0.1971
    108  CA       -25.3150   23.6390   47.8370 C.3   104  ASP104      0.1709
    109  C        -25.6740   23.1060   46.4500 C.2   104  ASP104      0.2293
    110  O        -25.5820   23.8230   45.4590 O.2   104  ASP104     -0.2864
    111  CB       -24.4790   24.9240   47.7150 C.3   104  ASP104      0.1436
    112  CG       -23.2260   24.7520   46.8360 C.2   104  ASP104      0.3671
    113  OD1      -23.1020   25.5100   45.8580 O.co2 104  ASP104     -0.2456
    114  OD2      -22.3650   23.8850   47.1080 O.co2 104  ASP104     -0.2456
    115  N        -14.0520   27.0460   36.5350 N.3   132  GLU132     -0.1231
    116  CA       -14.2730   25.8960   37.4150 C.3   132  GLU132      0.1699
    117  C        -13.0020   25.0700   37.5190 C.2   132  GLU132      0.2592
    118  O        -11.9770   25.4290   36.9530 O.2   132  GLU132     -0.2718
    119  CB       -15.3620   24.9790   36.8530 C.3   132  GLU132      0.0402
    120  CG       -16.7430   25.6130   36.7360 C.3   132  GLU132      0.1161
    121  CD       -17.5600   25.5000   38.0150 C.2   132  GLU132      0.3649
    122  OE1      -17.0640   24.8490   38.9700 O.co2 132  GLU132     -0.2457
    123  OE2      -18.6890   26.0650   38.0570 O.co2 132  GLU132     -0.2457
    124  N        -13.0890   23.9840   38.2800 N.am  133  TRP133     -0.1976
    125  CA       -12.0120   23.0190   38.4360 C.3   133  TRP133      0.1640
    126  C        -12.3760   21.9610   37.3890 C.2   133  TRP133      0.2290
    127  O        -13.4740   21.3990   37.3990 O.2   133  TRP133     -0.2864
    128  CB       -12.0580   22.4850   39.8490 C.3   133  TRP133      0.0576
    129  CG       -11.6180   23.5210   40.8310 C.ar  133  TRP133      0.0006
    130  CD1      -11.9080   24.8690   40.8320 C.ar  133  TRP133      0.0946
    131  CD2      -10.8030   23.2840   41.9720 C.ar  133  TRP133      0.0152
    132  NE1      -11.3100   25.4730   41.9210 N.ar  133  TRP133     -0.2442
    133  CE2      -10.6270   24.5170   42.6320 C.ar  133  TRP133      0.0810
    134  CE3      -10.2000   22.1370   42.4990 C.ar  133  TRP133      0.0012
    135  CZ2       -9.8740   24.6280   43.7950 C.ar  133  TRP133      0.0191
    136  CZ3       -9.4590   22.2480   43.6450 C.ar  133  TRP133      0.0001
    137  CH2       -9.2980   23.4850   44.2850 C.ar  133  TRP133      0.0015
    138  N        -15.4390   19.2700   38.6050 N.3   156  LEU156     -0.1245
    139  CA       -15.6290   18.7390   39.9680 C.3   156  LEU156      0.1561
    140  C        -17.0180   19.2900   40.3050 C.2   156  LEU156      0.2260
    141  O        -17.2080   20.5120   40.4950 O.2   156  LEU156     -0.2867
    142  CB       -14.5930   19.3170   40.9330 C.3   156  LEU156      0.0270
    143  CG       -13.4390   18.4120   41.3200 C.3   156  LEU156      0.0019
    144  CD1      -12.4600   18.3150   40.1650 C.3   156  LEU156      0.0001
    145  CD2      -12.7740   18.9660   42.5690 C.3   156  LEU156      0.0001
    146  N         -9.6520   24.9530   49.9340 N.3   187  TYR187     -0.1241
    147  CA       -10.8310   24.1280   49.8160 C.3   187  TYR187      0.1605
    148  C        -10.3020   22.7480   50.1870 C.2   187  TYR187      0.2264
    149  O         -9.1520   22.4430   49.8410 O.2   187  TYR187     -0.2867
    150  CB       -11.3080   24.0430   48.3730 C.3   187  TYR187      0.0534
    151  CG       -12.0640   25.2200   47.9020 C.ar  187  TYR187     -0.0201
    152  CD1      -11.4700   26.1540   47.0570 C.ar  187  TYR187     -0.0009
    153  CD2      -13.3630   25.4310   48.3290 C.ar  187  TYR187     -0.0009
    154  CE1      -12.1530   27.2670   46.6580 C.ar  187  TYR187      0.0417
    155  CE2      -14.0570   26.5530   47.9320 C.ar  187  TYR187      0.0417
    156  CZ       -13.4410   27.4650   47.0930 C.ar  187  TYR187      0.1957
    157  OH       -14.1290   28.5750   46.6960 O.3   187  TYR187     -0.2866
    158  N        -10.7580   20.2530   48.7520 N.3   189  ASP189     -0.1239
    159  CA       -10.4380   19.7790   47.3940 C.3   189  ASP189      0.1674
    160  C         -9.0140   20.1180   46.9180 C.2   189  ASP189      0.2266
    161  O         -8.5430   19.5490   45.9440 O.2   189  ASP189     -0.2867
    162  CB       -11.4070   20.3840   46.3580 C.3   189  ASP189      0.1410
    163  CG       -12.8640   20.1030   46.6610 C.2   189  ASP189      0.3668
    164  OD1      -13.4660   20.8390   47.4820 O.co2 189  ASP189     -0.2456
    165  OD2      -13.4090   19.1490   46.0590 O.co2 189  ASP189     -0.2456
    166  N        -25.7140   23.1320   40.4760 N.3   213  GLU213     -0.1245
    167  CA       -25.1310   23.9130   41.5590 C.3   213  GLU213      0.1567
    168  C        -25.7420   25.3100   41.6990 C.2   213  GLU213      0.2260
    169  O        -25.9120   26.0180   40.7120 O.2   213  GLU213     -0.2867
    170  CB       -23.6280   24.0400   41.3390 C.3   213  GLU213      0.0388
    171  CG       -22.9210   24.7830   42.4570 C.3   213  GLU213      0.1160
    172  CD       -21.4190   24.7310   42.3210 C.2   213  GLU213      0.3649
    173  OE1      -20.7340   25.6750   42.7720 O.co2 213  GLU213     -0.2457
    174  OE2      -20.9220   23.7370   41.7570 O.co2 213  GLU213     -0.2457
    175  N        -24.9360   28.7840   43.2830 N.3   215  ASP215     -0.1239
    176  CA       -23.9620   29.6800   43.9160 C.3   215  ASP215      0.1674
    177  C        -24.4390   31.1280   43.8450 C.2   215  ASP215      0.2266
    178  O        -23.7680   32.0270   44.3500 O.2   215  ASP215     -0.2867
    179  CB       -22.5880   29.5770   43.2250 C.3   215  ASP215      0.1410
    180  CG       -21.6880   28.5010   43.8360 C.2   215  ASP215      0.3668
    181  OD1      -20.6520   28.1450   43.2170 O.co2 215  ASP215     -0.2456
    182  OD2      -22.0160   28.0120   44.9350 O.co2 215  ASP215     -0.2456
@<TRIPOS>BOND
     1   115   116    1
     2   120   119    1
     3   120   121    1
     4   119   116    1
     5   118   117    2
     6   126   127    2
     7   126   125    1
     8   116   117    1
     9   117   124   am
    10   121   123   ar
    11   121   122   ar
    12   124   125    1
    13   125   128    1
    14   138   139    1
    15   128   129    1
    16   139   140    1
    17   139   142    1
    18   144   143    1
    19   140   141    2
    20   166   167    1
    21   169   168    2
    22   129   130   ar
    23   129   131   ar
    24   130   132   ar
    25   142   143    1
    26   143   145    1
    27   170   167    1
    28   170   171    1
    29   167   168    1
    30   174   172   ar
    31   132   133   ar
    32   131   134   ar
    33   131   133   ar
    34   172   171    1
    35   172   173   ar
    36   134   136   ar
    37   133   135   ar
    38   181   180   ar
    39   179   180    1
    40   179   176    1
    41   175   176    1
    42   136   137   ar
    43   135   137   ar
    44   180   182   ar
    45   177   176    1
    46   177   178    2
    47   110   109    2
    48   113   112   ar
    49   161   160    2
    50   165   163   ar
    51   101    99   ar
    52   162   163    1
    53   162   159    1
    54   109   108    1
    55   154   152   ar
    56   154   156   ar
    57   163   164   ar
    58   157   156    1
    59   112   114   ar
    60   112   111    1
    61   160   159    1
    62   152   151   ar
    63   156   155   ar
    64    99    98    1
    65    99   100   ar
    66   159   158    1
    67    98    95    1
    68   111   108    1
    69    97    96    2
    70   108   107    1
    71   151   153   ar
    72   151   150    1
    73   155   153   ar
    74    31    30    1
    75   150   147    1
    76    94    95    1
    77    95    96    1
    78   107   104   am
    79    96   102   am
    80    29    30    1
    81    29    28    1
    82   105   104    2
    83   104   103    1
    84    28    27    1
    85   147   146    1
    86   147   148    1
    87   149   148    2
    88   102   103    1
    89    79    77   am
    90   103   106    1
    91    87    85   am
    92    26    25    2
    93    27    24    1
    94    86    85    2
    95    77    78    2
    96    77    76    1
    97     7     6    1
    98    85    84    1
    99    25    24    1
   100    24    23    1
   101     4     3    2
   102    76    73    1
   103     6     5    1
   104     6     8    1
   105     5     2    1
   106    84    81    1
   107     1     2    1
   108    80    81    1
   109    80    74   am
   110     3     2    1
   111     3     9   am
   112    81    82    1
   113    73    74    1
   114    73    72    1
   115    82    83    2
   116    74    75    2
   117    20    21    1
   118    20    19    1
   119    10     9    1
   120    10    13    1
   121    10    11    1
   122    21    22    2
   123    72    62   am
   124    19    16   am
   125    11    14   am
   126    11    12    2
   127    62    63    2
   128    62    61    1
   129    14    15    1
   130    16    15    1
   131    16    17    2
   132    92    93    1
   133    92    89    1
   134    15    18    1
   135    61    64    1
   136    61    60    1
   137    51    50    2
   138    88    89    1
   139    64    65    1
   140    90    89    1
   141    90    91    2
   142    35    34    2
   143    37    36    1
   144    37    39    1
   145    36    33    1
   146    36    38    1
   147    32    33    1
   148    50    49    1
   149    34    33    1
   150    65    66   ar
   151    65    67   ar
   152    66    68   ar
   153    47    45   am
   154    49    52    1
   155    49    48    1
   156    55    57   ar
   157    55    53   ar
   158    52    53    1
   159    67    69   ar
   160    68    70   ar
   161    57    58   ar
   162    53    54   ar
   163    45    44    1
   164    45    46    2
   165    44    41    1
   166    69    70   ar
   167    70    71    1
   168    58    59    1
   169    58    56   ar
   170    54    56   ar
   171    41    40    1
   172    41    42    1
   173    43    42    2
