@<TRIPOS>MOLECULE
tmp/1jyrA00.pdb
 148 144 0 0 0
SMALL
GASTEIGER

@<TRIPOS>ATOM
      1  N         22.6570   28.2620   15.1610 N.3    12  ARG12      -0.1245
      2  CA        23.4770   27.2550   15.7990 C.3    12  ARG12       0.1563
      3  C         22.7030   26.3610   16.7420 C.2    12  ARG12       0.2260
      4  O         22.9450   25.1510   16.7550 O.2    12  ARG12      -0.2867
      5  CB        24.6360   28.0100   16.4960 C.3    12  ARG12       0.0307
      6  CG        25.6010   27.0900   17.3030 C.3    12  ARG12       0.0489
      7  CD        26.6220   28.1450   17.8420 C.3    12  ARG12       0.2205
      8  NE        27.6170   27.4460   18.6890 N.pl3  12  ARG12      -0.0865
      9  CZ        28.9130   27.3710   18.4220 C.cat  12  ARG12       0.5346
     10  NH1       29.5020   27.8820   17.3040 N.pl3  12  ARG12       0.1354
     11  NH2       29.7340   26.8670   19.3660 N.pl3  12  ARG12       0.1354
     12  N         25.7980   24.6410    7.5450 N.3    31  ARG31      -0.1245
     13  CA        24.8380   25.7870    7.6470 C.3    31  ARG31       0.1563
     14  C         25.5440   27.0130    7.3170 C.2    31  ARG31       0.2260
     15  O         26.7620   27.1530    7.4270 O.2    31  ARG31      -0.2867
     16  CB        24.1600   25.8030    9.0750 C.3    31  ARG31       0.0307
     17  CG        25.2610   25.8390   10.1870 C.3    31  ARG31       0.0489
     18  CD        24.4760   25.6280   11.5280 C.3    31  ARG31       0.2205
     19  NE        25.5290   25.5590   12.6320 N.pl3  31  ARG31      -0.0865
     20  CZ        26.1920   26.5940   13.0930 C.cat  31  ARG31       0.5346
     21  NH1       25.9620   27.8280   12.6320 N.pl3  31  ARG31       0.1354
     22  NH2       27.2450   26.4270   13.9340 N.pl3  31  ARG31       0.1354
     23  N         26.5340   30.5240    8.4640 N.3    33  SER33      -0.1202
     24  CA        26.6720   31.1130    9.7880 C.3    33  SER33       0.2020
     25  C         25.8480   32.4090    9.9830 C.2    33  SER33       0.2619
     26  O         25.8470   33.2580    9.1360 O.2    33  SER33      -0.2717
     27  CB        28.1740   31.3380    9.9200 C.3    33  SER33       0.2103
     28  OG        28.4700   31.9640   11.2000 O.3    33  SER33      -0.2182
     29  N         25.2100   32.5250   11.1360 N.am   34  GLU34      -0.1965
     30  CA        24.4970   33.7850   11.4950 C.3    34  GLU34       0.1733
     31  C         25.4460   34.7310   12.2000 C.2    34  GLU34       0.2617
     32  O         25.2100   35.8980   12.0860 O.2    34  GLU34      -0.2715
     33  CB        23.2910   33.5650   12.4030 C.3    34  GLU34       0.0429
     34  CG        22.3050   32.6370   11.8210 C.3    34  GLU34       0.1163
     35  CD        21.0200   32.5750   12.6380 C.2    34  GLU34       0.3649
     36  OE1       19.9540   33.0230   12.1830 O.co2  34  GLU34      -0.2457
     37  OE2       21.0740   32.0600   13.7490 O.co2  34  GLU34      -0.2457
     38  N         26.5100   34.2640   12.8260 N.am   35  SER35      -0.1936
     39  CA        27.4220   35.2010   13.5030 C.3    35  SER35       0.2055
     40  C         28.4510   35.7650   12.5860 C.2    35  SER35       0.2642
     41  O         28.9910   36.8800   12.8290 O.2    35  SER35      -0.2714
     42  CB        28.1140   34.5370   14.6750 C.3    35  SER35       0.2130
     43  OG        29.0540   33.5120   14.3440 O.3    35  SER35      -0.2179
     44  N         28.7240   35.0740   11.5000 N.am   36  ALA36      -0.1977
     45  CA        29.7170   35.5810   10.5800 C.3    36  ALA36       0.1597
     46  C         29.1540   35.4310    9.1660 C.2    36  ALA36       0.2287
     47  O         29.3150   34.4380    8.5130 O.2    36  ALA36      -0.2864
     48  CB        31.1040   34.7970   10.7270 C.3    36  ALA36       0.0319
     49  N         29.4350   26.9220    8.4600 N.3    41  SER41      -0.1217
     50  CA        29.7490   26.1150    9.6430 C.3    41  SER41       0.1889
     51  C         29.3540   24.7150    9.4680 C.2    41  SER41       0.2288
     52  O         28.3610   24.4050    8.8370 O.2    41  SER41      -0.2866
     53  CB        28.9930   26.7240   10.8440 C.3    41  SER41       0.2089
     54  OG        29.4220   28.0940   11.0600 O.3    41  SER41      -0.2183
     55  N         29.4530   19.2390   17.9980 N.3    51  GLN51      -0.1231
     56  CA        30.6110   20.1720   17.8660 C.3    51  GLN51       0.1698
     57  C         30.4340   21.0020   16.6120 C.2    51  GLN51       0.2592
     58  O         29.7950   20.5200   15.7130 O.2    51  GLN51      -0.2718
     59  CB        31.8930   19.4030   17.6460 C.3    51  GLN51       0.0381
     60  CG        32.2300   18.5940   18.9490 C.3    51  GLN51       0.0905
     61  CD        33.4560   17.6890   18.7720 C.2    51  GLN51       0.2608
     62  OE1       34.3410   17.9800   17.9750 O.2    51  GLN51      -0.2717
     63  NE2       33.5110   16.5870   19.5670 N.am   51  GLN51      -0.0878
     64  N         30.9540   22.1890   16.6580 N.am   52  HIS52      -0.1962
     65  CA        30.8550   23.1270   15.4810 C.3    52  HIS52       0.1787
     66  C         32.2300   23.4790   15.0150 C.2    52  HIS52       0.2620
     67  O         33.1200   23.8130   15.7770 O.2    52  HIS52      -0.2715
     68  CB        30.1600   24.3870   15.9060 C.3    52  HIS52       0.0785
     69  CG        28.8100   24.1250   16.4880 C.ar   52  HIS52       0.0821
     70  ND1       27.6390   23.9070   15.7810 N.ar   52  HIS52      -0.2267
     71  CD2       28.4590   23.9690   17.8180 C.ar   52  HIS52       0.1154
     72  CE1       26.6300   23.6480   16.6120 C.ar   52  HIS52       0.1986
     73  NE2       27.1220   23.6740   17.8690 N.ar   52  HIS52      -0.2212
     74  N         32.3890   23.4620   13.6920 N.am   53  PHE53      -0.1960
     75  CA        33.6390   23.8200   13.0210 C.3    53  PHE53       0.1771
     76  C         33.3670   24.9360   12.0690 C.2    53  PHE53       0.2619
     77  O         32.2600   25.0160   11.4900 O.2    53  PHE53      -0.2715
     78  CB        34.1570   22.6410   12.1940 C.3    53  PHE53       0.0574
     79  CG        34.5800   21.4380   12.9940 C.ar   53  PHE53      -0.0200
     80  CD1       33.6900   20.6310   13.5600 C.ar   53  PHE53      -0.0042
     81  CD2       35.9100   21.2230   13.1980 C.ar   53  PHE53      -0.0042
     82  CE1       34.0700   19.5260   14.4600 C.ar   53  PHE53      -0.0003
     83  CE2       36.2800   20.1280   14.0590 C.ar   53  PHE53      -0.0003
     84  CZ        35.3620   19.3550   14.6480 C.ar   53  PHE53      -0.0000
     85  N         34.3340   25.8000   11.8810 N.am   54  LYS54      -0.1977
     86  CA        34.1130   26.8750   10.8840 C.3    54  LYS54       0.1596
     87  C         34.7590   26.3330    9.6100 C.2    54  LYS54       0.2287
     88  O         35.8280   25.7830    9.5950 O.2    54  LYS54      -0.2864
     89  CB        34.8390   28.1330   11.3460 C.3    54  LYS54       0.0298
     90  CG        34.8190   29.2410   10.2100 C.3    54  LYS54       0.0038
     91  CD        35.4090   30.5310   10.8070 C.3    54  LYS54       0.0206
     92  CE        34.5090   31.1510   11.8150 C.3    54  LYS54       0.1093
     93  NZ        33.2040   31.7060   11.1630 N.3    54  LYS54      -0.1314
     94  N         36.9650   27.0610    6.8730 N.3    56  LEU56      -0.1245
     95  CA        37.9670   28.1300    6.6320 C.3    56  LEU56       0.1561
     96  C         38.2080   28.3020    5.1400 C.2    56  LEU56       0.2260
     97  O         37.9900   27.4030    4.3780 O.2    56  LEU56      -0.2867
     98  CB        39.2230   27.7290    7.3380 C.3    56  LEU56       0.0270
     99  CG        38.9980   27.4810    8.9080 C.3    56  LEU56       0.0019
    100  CD1       40.3150   26.9690    9.6210 C.3    56  LEU56       0.0001
    101  CD2       38.5490   28.7330    9.4800 C.3    56  LEU56       0.0001
    102  N         39.3580   22.5870    6.7620 N.3    65  LEU65      -0.1231
    103  CA        39.0720   22.6210    8.2200 C.3    65  LEU65       0.1693
    104  C         40.4200   22.7720    9.0030 C.2    65  LEU65       0.2592
    105  O         40.4490   23.5020    9.9590 O.2    65  LEU65      -0.2718
    106  CB        38.4180   21.3070    8.6450 C.3    65  LEU65       0.0284
    107  CG        36.9930   21.0410    8.1010 C.3    65  LEU65       0.0019
    108  CD1       36.5210   19.6840    8.6710 C.3    65  LEU65       0.0001
    109  CD2       36.0090   22.2020    8.4460 C.3    65  LEU65       0.0001
    110  N         41.4520   22.0630    8.5850 N.am   66  TRP66      -0.1976
    111  CA        42.7630   22.0760    9.2890 C.3    66  TRP66       0.1640
    112  C         43.9270   22.3810    8.3370 C.2    66  TRP66       0.2290
    113  O         44.4470   23.4920    8.4210 O.2    66  TRP66      -0.2864
    114  CB        42.9720   20.7180    9.9900 C.3    66  TRP66       0.0576
    115  CG        41.9180   20.4140   11.0560 C.ar   66  TRP66       0.0006
    116  CD1       40.8780   19.5370   10.9690 C.ar   66  TRP66       0.0946
    117  CD2       41.8510   20.9980   12.3540 C.ar   66  TRP66       0.0152
    118  NE1       40.1750   19.5470   12.1270 N.ar   66  TRP66      -0.2442
    119  CE2       40.7440   20.4050   13.0140 C.ar   66  TRP66       0.0810
    120  CE3       42.6220   21.9590   13.0230 C.ar   66  TRP66       0.0012
    121  CZ2       40.3710   20.7240   14.3360 C.ar   66  TRP66       0.0191
    122  CZ3       42.2340   22.2800   14.3780 C.ar   66  TRP66       0.0001
    123  CH2       41.1380   21.6600   14.9810 C.ar   66  TRP66       0.0015
    124  N         37.9820   15.7200   13.3150 N.3    86  SER86      -0.1202
    125  CA        38.5960   16.1480   14.5930 C.3    86  SER86       0.2020
    126  C         40.0210   15.6270   14.7020 C.2    86  SER86       0.2619
    127  O         40.3200   14.5160   14.1800 O.2    86  SER86      -0.2717
    128  CB        37.6820   15.5160   15.6690 C.3    86  SER86       0.2103
    129  OG        38.3420   15.6780   16.9590 O.3    86  SER86      -0.2182
    130  N         40.8330   16.3520   15.4450 N.am   87  ARG87      -0.1965
    131  CA        42.2330   15.9260   15.6410 C.3    87  ARG87       0.1729
    132  C         42.3080   15.0230   16.8710 C.2    87  ARG87       0.2616
    133  O         43.3240   14.3540   17.0200 O.2    87  ARG87      -0.2715
    134  CB        43.0910   17.1170   15.8720 C.3    87  ARG87       0.0348
    135  CG        43.2080   17.9970   14.6160 C.3    87  ARG87       0.0492
    136  CD        44.2590   19.0260   14.8440 C.3    87  ARG87       0.2205
    137  NE        43.8960   19.8610   15.9880 N.pl3  87  ARG87      -0.0865
    138  CZ        44.6370   20.8850   16.4290 C.cat  87  ARG87       0.5346
    139  NH1       45.7970   21.1300   15.7870 N.pl3  87  ARG87       0.1354
    140  NH2       44.1910   21.6980   17.4290 N.pl3  87  ARG87       0.1354
    141  N         41.3270   15.0490   17.7210 N.am   88  ASN88      -0.1972
    142  CA        41.3940   14.1520   18.9060 C.3    88  ASN88       0.1688
    143  C         40.3770   13.0410   19.0080 C.2    88  ASN88       0.2292
    144  O         40.4430   12.2050   19.9270 O.2    88  ASN88      -0.2864
    145  CB        41.3280   15.0810   20.1550 C.3    88  ASN88       0.1181
    146  CG        40.0010   15.8950   20.3320 C.2    88  ASN88       0.2629
    147  OD1       40.0750   17.1880   20.4800 O.2    88  ASN88      -0.2716
    148  ND2       38.8640   15.3160   20.3340 N.am   88  ASN88      -0.0877
@<TRIPOS>BOND
     1    97    96    2
     2    96    95    1
     3    95    94    1
     4    95    98    1
     5   102   103    1
     6    14    15    2
     7    14    13    1
     8    98    99    1
     9    12    13    1
    10    13    16    1
    11   107   109    1
    12   107   106    1
    13   107   108    1
    14   103   106    1
    15   103   104    1
    16   112   113    2
    17   112   111    1
    18    49    50    1
    19    23    24    1
    20    47    46    2
    21   110   104   am
    22   110   111    1
    23    52    51    2
    24    99   101    1
    25    99   100    1
    26   104   105    2
    27    16    17    1
    28    26    25    2
    29    46    45    1
    30   111   114    1
    31    51    50    1
    32    88    87    2
    33    87    86    1
    34    50    53    1
    35    24    27    1
    36    24    25    1
    37    27    28    1
    38    25    29   am
    39   114   115    1
    40    17    18    1
    41    90    91    1
    42    90    89    1
    43    45    48    1
    44    45    44    1
    45    91    92    1
    46    53    54    1
    47    86    89    1
    48    86    85    1
    49   116   115   ar
    50   116   118   ar
    51   115   117   ar
    52    29    30    1
    53    93    92    1
    54    77    76    2
    55    30    31    1
    56    30    33    1
    57    44    40   am
    58    18    19    1
    59    34    33    1
    60    34    35    1
    61    85    76   am
    62    76    75    1
    63    32    31    2
    64   118   119   ar
    65    36    35   ar
    66    78    79    1
    67    78    75    1
    68    31    38   am
    69   117   119   ar
    70   117   120   ar
    71    40    41    2
    72    40    39    1
    73    21    20    1
    74    19    20    2
    75    35    37   ar
    76    38    39    1
    77    79    81   ar
    78    79    80   ar
    79   119   121   ar
    80    75    74    1
    81   120   122   ar
    82    20    22    1
    83    81    83   ar
    84   124   125    1
    85    39    42    1
    86    80    82   ar
    87    74    66   am
    88    83    84   ar
    89   127   126    2
    90   121   123   ar
    91    43    42    1
    92   122   123   ar
    93    82    84   ar
    94   125   126    1
    95   125   128    1
    96   135   136    1
    97   135   134    1
    98   126   130   am
    99   136   137    1
   100    66    65    1
   101    66    67    2
   102     1     2    1
   103   130   131    1
   104    65    68    1
   105    65    64    1
   106   131   134    1
   107   131   132    1
   108   128   129    1
   109    58    57    2
   110    70    69   ar
   111    70    72   ar
   112   139   138    1
   113     2     5    1
   114     2     3    1
   115    68    69    1
   116   137   138    2
   117   138   140    1
   118    69    71   ar
   119     5     6    1
   120    72    73   ar
   121    57    64   am
   122    57    56    1
   123     3     4    2
   124   132   133    2
   125   132   141   am
   126     6     7    1
   127    10     9    1
   128    59    56    1
   129    59    60    1
   130   141   142    1
   131    71    73   ar
   132     7     8    1
   133    56    55    1
   134    62    61    2
   135     9     8    2
   136     9    11    1
   137    61    60    1
   138    61    63   am
   139   142   143    1
   140   142   145    1
   141   143   144    2
   142   145   146    1
   143   146   148   am
   144   146   147    2
