@<TRIPOS>MOLECULE
tmp/1jysA00.pdb
 85 81 0 0 0
SMALL
GASTEIGER

@<TRIPOS>ATOM
      1  N         -9.4930  -43.3380   -4.7630 N.3    76  SER76      -0.1202
      2  CA        -8.6410  -42.3440   -5.4120 C.3    76  SER76       0.2020
      3  C         -7.5430  -41.9700   -4.4210 C.2    76  SER76       0.2619
      4  O         -7.6560  -42.2360   -3.2210 O.2    76  SER76      -0.2717
      5  CB        -9.4460  -41.0960   -5.8120 C.3    76  SER76       0.2103
      6  OG       -10.0100  -40.4540   -4.6760 O.3    76  SER76      -0.2182
      7  N         -6.4720  -41.3580   -4.9150 N.am   77  ALA77      -0.1965
      8  CA        -5.3780  -40.9820   -4.0360 C.3    77  ALA77       0.1728
      9  C         -4.5470  -39.8480   -4.6130 C.2    77  ALA77       0.2616
     10  O         -4.5890  -39.5830   -5.8130 O.2    77  ALA77      -0.2715
     11  CB        -4.4830  -42.1900   -3.7790 C.3    77  ALA77       0.0334
     12  N         -3.8030  -39.1740   -3.7410 N.am   78  GLY78      -0.1955
     13  CA        -2.9310  -38.1090   -4.1940 C.3    78  GLY78       0.1869
     14  C         -1.6050  -38.7510   -4.5620 C.2    78  GLY78       0.2309
     15  O         -1.1350  -39.6670   -3.8710 O.2    78  GLY78      -0.2863
     16  N         -5.2560  -37.9440    7.8800 N.3   150  ALA150     -0.1231
     17  CA        -5.0550  -36.5460    7.5390 C.3   150  ALA150      0.1694
     18  C         -5.2210  -36.3320    6.0510 C.2   150  ALA150      0.2592
     19  O         -4.8650  -37.1890    5.2380 O.2   150  ALA150     -0.2718
     20  CB        -3.6610  -36.0960    7.9670 C.3   150  ALA150      0.0304
     21  N         -5.7980  -35.1970    5.6910 N.am  151  PHE151     -0.1962
     22  CA        -5.9240  -34.8800    4.2900 C.3   151  PHE151      0.1771
     23  C         -4.6890  -34.0220    4.0430 C.2   151  PHE151      0.2619
     24  O         -4.6060  -32.9020    4.5360 O.2   151  PHE151     -0.2715
     25  CB        -7.1990  -34.0840    4.0090 C.3   151  PHE151      0.0574
     26  CG        -7.3400  -33.6840    2.5750 C.ar  151  PHE151     -0.0200
     27  CD1       -7.0780  -32.3790    2.1710 C.ar  151  PHE151     -0.0042
     28  CD2       -7.6720  -34.6280    1.6120 C.ar  151  PHE151     -0.0042
     29  CE1       -7.1410  -32.0240    0.8260 C.ar  151  PHE151     -0.0003
     30  CE2       -7.7370  -34.2800    0.2630 C.ar  151  PHE151     -0.0003
     31  CZ        -7.4700  -32.9780   -0.1280 C.ar  151  PHE151     -0.0000
     32  N         -3.7160  -34.5720    3.3220 N.am  152  ILE152     -0.1977
     33  CA        -2.4770  -33.8600    3.0230 C.3   152  ILE152      0.1596
     34  C         -2.7670  -32.7360    2.0440 C.2   152  ILE152      0.2287
     35  O         -3.1710  -32.9700    0.9050 O.2   152  ILE152     -0.2864
     36  CB        -1.4170  -34.8070    2.4210 C.3   152  ILE152      0.0276
     37  CG1       -1.1810  -35.9850    3.3700 C.3   152  ILE152      0.0022
     38  CG2       -0.1150  -34.0540    2.1890 C.3   152  ILE152      0.0022
     39  CD1       -0.8670  -35.5700    4.7990 C.3   152  ILE152      0.0001
     40  N          3.5160  -32.9830    3.0660 N.3   158  LEU158     -0.1245
     41  CA         4.1270  -33.7700    2.0040 C.3   158  LEU158      0.1561
     42  C          5.5960  -34.0050    2.2920 C.2   158  LEU158      0.2260
     43  O          6.1080  -35.1100    2.0790 O.2   158  LEU158     -0.2867
     44  CB         3.9840  -33.0510    0.6610 C.3   158  LEU158      0.0270
     45  CG         2.5630  -32.9520    0.1040 C.3   158  LEU158      0.0019
     46  CD1        2.4900  -31.8630   -0.9670 C.3   158  LEU158      0.0001
     47  CD2        2.1620  -34.3080   -0.4710 C.3   158  LEU158      0.0001
     48  N         -0.7090  -41.3300   -1.6070 N.3   171  VAL171     -0.1231
     49  CA        -1.1680  -41.1540   -0.2400 C.3   171  VAL171      0.1692
     50  C         -2.6700  -40.8830   -0.1790 C.2   171  VAL171      0.2592
     51  O         -3.2390  -40.2410   -1.0640 O.2   171  VAL171     -0.2718
     52  CB        -0.4170  -39.9660    0.4380 C.3   171  VAL171      0.0266
     53  CG1       -0.5750  -38.7030   -0.4080 C.3   171  VAL171      0.0020
     54  CG2       -0.9610  -39.7220    1.8440 C.3   171  VAL171      0.0020
     55  N         -3.3110  -41.4090    0.8560 N.am  172  GLU172     -0.1966
     56  CA        -4.7290  -41.1740    1.0690 C.3   172  GLU172      0.1733
     57  C         -5.1020  -41.5050    2.5110 C.2   172  GLU172      0.2616
     58  O         -4.2260  -41.5140    3.3810 O.2   172  GLU172     -0.2715
     59  CB        -5.5930  -41.9080    0.0230 C.3   172  GLU172      0.0429
     60  CG        -5.2180  -43.3380   -0.3070 C.3   172  GLU172      0.1163
     61  CD        -5.6000  -44.3150    0.7860 C.2   172  GLU172      0.3649
     62  OE1       -4.7580  -44.5780    1.6680 O.co2 172  GLU172     -0.2457
     63  OE2       -6.7430  -44.8170    0.7570 O.co2 172  GLU172     -0.2457
     64  N         -6.3670  -41.7890    2.7930 N.am  173  MET173     -0.1977
     65  CA        -6.7520  -41.9930    4.1850 C.3   173  MET173      0.1605
     66  C         -7.3040  -43.3370    4.6400 C.2   173  MET173      0.2287
     67  O         -7.6030  -43.5070    5.8210 O.2   173  MET173     -0.2864
     68  CB        -7.7490  -40.8870    4.5750 C.3   173  MET173      0.0413
     69  CG        -7.2570  -39.4620    4.2690 C.3   173  MET173      0.0598
     70  SD        -8.5110  -38.1730    4.5870 S.3   173  MET173     -0.1393
     71  CE        -8.8280  -38.4090    6.2490 C.3   173  MET173      0.0692
     72  N         -5.9510  -38.7090   -8.3810 N.3   196  SER196     -0.1202
     73  CA        -6.7700  -37.5250   -8.5980 C.3   196  SER196      0.2020
     74  C         -5.9550  -36.2490   -8.7430 C.2   196  SER196      0.2618
     75  O         -6.3930  -35.2900   -9.3790 O.2   196  SER196     -0.2717
     76  CB        -7.7540  -37.3730   -7.4410 C.3   196  SER196      0.2103
     77  OG        -7.0720  -37.3670   -6.2010 O.3   196  SER196     -0.2182
     78  N         -4.7740  -36.2370   -8.1420 N.am  197  ASP197     -0.1973
     79  CA        -3.9010  -35.0750   -8.2000 C.3   197  ASP197      0.1709
     80  C         -2.4830  -35.4880   -7.8620 C.2   197  ASP197      0.2293
     81  O         -2.2680  -36.5020   -7.1930 O.2   197  ASP197     -0.2864
     82  CB        -4.3640  -34.0250   -7.1990 C.3   197  ASP197      0.1436
     83  CG        -4.5830  -34.6060   -5.8250 C.2   197  ASP197      0.3671
     84  OD1       -5.6930  -35.1190   -5.5620 O.co2 197  ASP197     -0.2456
     85  OD2       -3.6390  -34.5710   -5.0090 O.co2 197  ASP197     -0.2456
@<TRIPOS>BOND
     1    75    74    2
     2    74    73    1
     3    74    78   am
     4    73    72    1
     5    73    76    1
     6    79    78    1
     7    79    80    1
     8    79    82    1
     9    80    81    2
    10    76    77    1
    11    82    83    1
    12    83    84   ar
    13    83    85   ar
    14    10     9    2
    15     5     2    1
    16     5     6    1
    17     2     1    1
    18     2     3    1
    19     7     3   am
    20     7     8    1
    21     9     8    1
    22     9    12   am
    23    14    13    1
    24    14    15    2
    25     3     4    2
    26    13    12    1
    27     8    11    1
    28    48    49    1
    29    51    50    2
    30    46    45    1
    31    47    45    1
    32    53    52    1
    33    60    59    1
    34    60    61    1
    35    49    50    1
    36    49    52    1
    37    50    55   am
    38    31    30   ar
    39    31    29   ar
    40    59    56    1
    41    45    44    1
    42    30    28   ar
    43    52    54    1
    44    44    41    1
    45    63    61   ar
    46    61    62   ar
    47    29    27   ar
    48    55    56    1
    49    35    34    2
    50    56    57    1
    51    28    26   ar
    52    41    42    1
    53    41    40    1
    54    34    33    1
    55    43    42    2
    56    27    26   ar
    57    38    36    1
    58    36    33    1
    59    36    37    1
    60    57    64   am
    61    57    58    2
    62    26    25    1
    63    64    65    1
    64    33    32    1
    65    32    23   am
    66    37    39    1
    67    25    22    1
    68    23    22    1
    69    23    24    2
    70    65    68    1
    71    65    66    1
    72    69    68    1
    73    69    70    1
    74    22    21    1
    75    70    71    1
    76    66    67    2
    77    19    18    2
    78    21    18   am
    79    18    17    1
    80    17    16    1
    81    17    20    1
