@<TRIPOS>MOLECULE
tmp/1jzeA00.pdb
 85 84 0 0 0
SMALL
GASTEIGER

@<TRIPOS>ATOM
      1  N         13.3870    3.4450   16.4600 N.3    73  LEU73      -0.1231
      2  CA        14.6390    3.7880   15.8140 C.3    73  LEU73       0.1693
      3  C         15.7410    3.0950   16.5850 C.2    73  LEU73       0.2592
      4  O         15.7750    3.1430   17.8210 O.2    73  LEU73      -0.2718
      5  CB        14.8580    5.3020   15.8240 C.3    73  LEU73       0.0284
      6  CG        14.2720    6.1370   14.6930 C.3    73  LEU73       0.0019
      7  CD1       14.6200    7.5970   14.9340 C.3    73  LEU73       0.0001
      8  CD2       14.8500    5.6730   13.3630 C.3    73  LEU73       0.0001
      9  N         16.6110    2.3850   15.8770 N.am   74  LYS74      -0.1966
     10  CA        17.7040    1.7300   16.5740 C.3    74  LYS74       0.1713
     11  C         18.5830    2.8200   17.1330 C.2    74  LYS74       0.2458
     12  O         18.8810    3.7880   16.4440 O.2    74  LYS74      -0.2730
     13  CB        18.5540    0.8560   15.6580 C.3    74  LYS74       0.0311
     14  CG        19.7340    0.2610   16.4340 C.3    74  LYS74       0.0038
     15  CD        20.7270   -0.4970   15.5860 C.3    74  LYS74       0.0206
     16  CE        20.5360   -0.2350   14.1150 C.3    74  LYS74       0.1093
     17  NZ        21.5860   -0.9310   13.3270 N.3    74  LYS74      -0.1314
     18  N         18.9840    2.6790   18.3960 N.am   75  PRO75      -0.2716
     19  CA        19.8400    3.7010   19.0030 C.3    75  PRO75       0.1536
     20  C         21.1550    3.8240   18.2760 C.2    75  PRO75       0.2599
     21  O         21.7450    2.8400   17.8090 O.2    75  PRO75      -0.2715
     22  CB        20.0550    3.1580   20.4130 C.3    75  PRO75       0.0310
     23  CG        18.7740    2.4500   20.6890 C.3    75  PRO75       0.0237
     24  CD        18.5450    1.7000   19.4010 C.3    75  PRO75       0.0939
     25  N         21.5600    5.0810   18.0980 N.am   76  ASP76      -0.1958
     26  CA        22.8270    5.3880   17.4840 C.3    76  ASP76       0.1840
     27  C         23.0160    4.9120   16.0310 C.2    76  ASP76       0.2622
     28  O         24.1420    4.7640   15.5510 O.2    76  ASP76      -0.2715
     29  CB        23.9080    4.8270   18.3820 C.3    76  ASP76       0.1450
     30  CG        23.8280    5.3880   19.8080 C.2    76  ASP76       0.3671
     31  OD1       23.8200    6.6320   19.9690 O.co2  76  ASP76      -0.2456
     32  OD2       23.7380    4.5950   20.7750 O.co2  76  ASP76      -0.2456
     33  N         21.8980    4.7250   15.3280 N.am   77  ASP77      -0.1957
     34  CA        21.8820    4.2710   13.9350 C.3    77  ASP77       0.1840
     35  C         22.4130    5.3570   12.9730 C.2    77  ASP77       0.2622
     36  O         21.6980    6.2910   12.6090 O.2    77  ASP77      -0.2715
     37  CB        20.4490    3.8450   13.5700 C.3    77  ASP77       0.1450
     38  CG        20.3530    3.1490   12.2370 C.2    77  ASP77       0.3671
     39  OD1       21.2970    3.2410   11.4210 O.co2  77  ASP77      -0.2456
     40  OD2       19.3050    2.5040   11.9840 O.co2  77  ASP77      -0.2456
     41  N         23.6490    5.1610   12.5140 N.am   78  SER78      -0.1950
     42  CA        24.3590    6.0770   11.6110 C.3    78  SER78       0.1924
     43  C         23.7450    6.3760   10.2570 C.2    78  SER78       0.2314
     44  O         24.1250    7.3420    9.5940 O.2    78  SER78      -0.2863
     45  CB        25.7980    5.5840   11.4030 C.3    78  SER78       0.2116
     46  OG        25.9120    4.2010   11.6910 O.3    78  SER78      -0.2180
     47  N         20.6930    7.1390    9.8110 N.3    80  VAL80      -0.1231
     48  CA        19.7070    8.1950    9.9810 C.3    80  VAL80       0.1692
     49  C         20.3720    9.5620    9.8020 C.2    80  VAL80       0.2592
     50  O         21.2250    9.9530   10.5960 O.2    80  VAL80      -0.2718
     51  CB        19.0340    8.1450   11.3770 C.3    80  VAL80       0.0266
     52  CG1       18.0210    9.2660   11.5100 C.3    80  VAL80       0.0020
     53  CG2       18.3570    6.8000   11.5960 C.3    80  VAL80       0.0020
     54  N         20.0260   10.2420    8.7200 N.am   81  ILE81      -0.1966
     55  CA        20.5770   11.5570    8.4510 C.3    81  ILE81       0.1727
     56  C         19.9060   12.5570    9.3900 C.2    81  ILE81       0.2616
     57  O         20.5820   13.3570   10.0370 O.2    81  ILE81      -0.2715
     58  CB        20.3360   11.9550    6.9820 C.3    81  ILE81       0.0290
     59  CG1       21.0690   10.9690    6.0720 C.3    81  ILE81       0.0022
     60  CG2       20.8010   13.3890    6.7400 C.3    81  ILE81       0.0023
     61  CD1       20.6820   11.0820    4.6250 C.3    81  ILE81       0.0001
     62  N         18.5850   12.4350    9.5170 N.am   82  ALA82      -0.1963
     63  CA        17.7890   13.3090   10.3760 C.3    82  ALA82       0.1728
     64  C         16.4820   12.6170   10.7140 C.2    82  ALA82       0.2616
     65  O         16.0540   11.6980   10.0090 O.2    82  ALA82      -0.2715
     66  CB        17.5330   14.6380    9.6890 C.3    82  ALA82       0.0334
     67  N         15.8420   13.0700   11.7840 N.am   83  HIS83      -0.1973
     68  CA        14.5970   12.4610   12.2110 C.3    83  HIS83       0.1656
     69  C         13.8300   13.3250   13.1980 C.2    83  HIS83       0.2291
     70  O         14.4310   14.0820   13.9730 O.2    83  HIS83      -0.2864
     71  CB        14.8920   11.1120   12.8810 C.3    83  HIS83       0.0771
     72  CG        15.6550   11.2240   14.1770 C.ar   83  HIS83       0.0820
     73  ND1       15.0440   11.5460   15.3650 N.ar   83  HIS83      -0.2267
     74  CD2       16.9680   11.0420   14.4630 C.ar   83  HIS83       0.1154
     75  CE1       15.9510   11.5610   16.3310 C.ar   83  HIS83       0.1986
     76  NE2       17.1210   11.2600   15.8130 N.ar   83  HIS83      -0.2212
     77  N         24.8910   17.6680    4.6980 N.3   101  LYS101     -0.1245
     78  CA        24.8760   16.2440    5.0400 C.3   101  LYS101      0.1561
     79  C         24.2880   15.4640    3.8600 C.2   101  LYS101      0.2260
     80  O         24.1870   14.2450    3.8870 O.2   101  LYS101     -0.2867
     81  CB        24.0370   15.9840    6.2940 C.3   101  LYS101      0.0271
     82  CG        24.6700   16.4400    7.6000 C.3   101  LYS101      0.0035
     83  CD        23.7080   16.1260    8.7320 C.3   101  LYS101      0.0206
     84  CE        24.2410   16.5570   10.0760 C.3   101  LYS101      0.1093
     85  NZ        23.2920   16.2940   11.1650 N.3   101  LYS101     -0.1314
@<TRIPOS>BOND
     1    79    80    2
     2    79    78    1
     3    61    59    1
     4    77    78    1
     5    78    81    1
     6    59    58    1
     7    81    82    1
     8    60    58    1
     9    58    55    1
    10    82    83    1
    11    55    54    1
    12    55    56    1
    13    54    49   am
    14    83    84    1
    15    56    62   am
    16    56    57    2
    17    62    63    1
    18    44    43    2
    19    66    63    1
    20    49    48    1
    21    49    50    2
    22    47    48    1
    23    48    51    1
    24    65    64    2
    25    84    85    1
    26    43    42    1
    27    63    64    1
    28    64    67   am
    29    51    52    1
    30    51    53    1
    31    45    42    1
    32    45    46    1
    33    39    38   ar
    34    42    41    1
    35    67    68    1
    36    40    38   ar
    37    68    71    1
    38    68    69    1
    39    38    37    1
    40    41    35   am
    41    36    35    2
    42    71    72    1
    43    35    34    1
    44    69    70    2
    45    17    16    1
    46     8     6    1
    47    37    34    1
    48    34    33    1
    49    16    15    1
    50    72    74   ar
    51    72    73   ar
    52    74    76   ar
    53     6     7    1
    54     6     5    1
    55    33    27   am
    56    73    75   ar
    57    28    27    2
    58    15    14    1
    59    13    14    1
    60    13    10    1
    61    76    75   ar
    62     2     5    1
    63     2     1    1
    64     2     3    1
    65     9    10    1
    66     9     3   am
    67    27    26    1
    68    12    11    2
    69    10    11    1
    70     3     4    2
    71    11    18   am
    72    26    25    1
    73    26    29    1
    74    21    20    2
    75    25    20   am
    76    20    19    1
    77    29    30    1
    78    18    19    1
    79    18    24    1
    80    19    22    1
    81    24    23    1
    82    30    31   ar
    83    30    32   ar
    84    22    23    1
