@<TRIPOS>MOLECULE
tmp/1jzhA00.pdb
 96 94 0 0 0
SMALL
GASTEIGER

@<TRIPOS>ATOM
      1  N         11.8410    3.7340   22.7440 N.3    70  LYS70      -0.1231
      2  CA        13.0130    4.1700   21.9870 C.3    70  LYS70       0.1693
      3  C         12.6360    4.8670   20.6750 C.2    70  LYS70       0.2592
      4  O         13.4780    5.0030   19.7820 O.2    70  LYS70      -0.2718
      5  CB        13.9210    2.9720   21.6820 C.3    70  LYS70       0.0285
      6  CG        14.5090    2.2780   22.9060 C.3    70  LYS70       0.0035
      7  CD        15.4550    3.1950   23.6560 C.3    70  LYS70       0.0206
      8  CE        15.8120    2.6520   25.0270 C.3    70  LYS70       0.1093
      9  NZ        16.5230    3.6990   25.8210 N.3    70  LYS70      -0.1314
     10  N         11.3790    5.3000   20.5660 N.am   71  ASP71      -0.1974
     11  CA        10.8660    5.9810   19.3730 C.3    71  ASP71       0.1709
     12  C         11.0540    5.1940   18.0800 C.2    71  ASP71       0.2293
     13  O         11.2090    5.7750   17.0040 O.2    71  ASP71      -0.2864
     14  CB        11.4910    7.3690   19.2320 C.3    71  ASP71       0.1436
     15  CG        10.4840    8.4810   19.4440 C.2    71  ASP71       0.3671
     16  OD1        9.5680    8.3170   20.2820 O.co2  71  ASP71      -0.2456
     17  OD2       10.6010    9.5190   18.7680 O.co2  71  ASP71      -0.2456
     18  N         13.5380    3.5220   16.9060 N.3    73  LEU73      -0.1231
     19  CA        14.8300    3.7770   16.2800 C.3    73  LEU73       0.1693
     20  C         15.9070    3.0540   17.0730 C.2    73  LEU73       0.2592
     21  O         15.8370    2.9820   18.3030 O.2    73  LEU73      -0.2718
     22  CB        15.1520    5.2700   16.2780 C.3    73  LEU73       0.0284
     23  CG        14.3950    6.1690   15.3120 C.3    73  LEU73       0.0019
     24  CD1       14.9470    7.5780   15.4140 C.3    73  LEU73       0.0001
     25  CD2       14.5480    5.6330   13.8980 C.3    73  LEU73       0.0001
     26  N         16.8850    2.4920   16.3700 N.am   74  LYS74      -0.1966
     27  CA        17.9870    1.8050   17.0330 C.3    74  LYS74       0.1713
     28  C         18.8080    2.9130   17.6790 C.2    74  LYS74       0.2458
     29  O         19.2010    3.8690   17.0050 O.2    74  LYS74      -0.2730
     30  CB        18.8340    1.0480   16.0030 C.3    74  LYS74       0.0311
     31  CG        20.0420    0.3140   16.5700 C.3    74  LYS74       0.0038
     32  CD        20.7900   -0.3950   15.4480 C.3    74  LYS74       0.0206
     33  CE        22.2160   -0.7550   15.8330 C.3    74  LYS74       0.1093
     34  NZ        23.0110   -1.0530   14.6020 N.3    74  LYS74      -0.1314
     35  N         19.0570    2.8180   18.9970 N.am   75  PRO75      -0.2716
     36  CA        19.8390    3.8530   19.6770 C.3    75  PRO75       0.1536
     37  C         21.1500    4.1110   18.9400 C.2    75  PRO75       0.2599
     38  O         21.8120    3.1740   18.5040 O.2    75  PRO75      -0.2715
     39  CB        20.0860    3.2390   21.0550 C.3    75  PRO75       0.0310
     40  CG        18.8630    2.3980   21.2710 C.3    75  PRO75       0.0237
     41  CD        18.7080    1.7280   19.9260 C.3    75  PRO75       0.0939
     42  N         21.4520    5.3880   18.7220 N.am   76  ASP76      -0.1958
     43  CA        22.6750    5.8170   18.0440 C.3    76  ASP76       0.1840
     44  C         22.9020    5.2040   16.6490 C.2    76  ASP76       0.2622
     45  O         24.0430    4.9850   16.2390 O.2    76  ASP76      -0.2715
     46  CB        23.8930    5.5780   18.9570 C.3    76  ASP76       0.1450
     47  CG        23.7400    6.2400   20.3350 C.2    76  ASP76       0.3671
     48  OD1       23.6480    7.4880   20.4020 O.co2  76  ASP76      -0.2456
     49  OD2       23.7000    5.5050   21.3500 O.co2  76  ASP76      -0.2456
     50  N         21.8180    4.9700   15.9100 N.am   77  ASP77      -0.1971
     51  CA        21.8930    4.4030   14.5580 C.3    77  ASP77       0.1709
     52  C         22.5770    5.4150   13.6340 C.2    77  ASP77       0.2293
     53  O         22.0390    6.4900   13.3760 O.2    77  ASP77      -0.2864
     54  CB        20.4820    4.0800   14.0470 C.3    77  ASP77       0.1436
     55  CG        20.4830    3.1800   12.8150 C.2    77  ASP77       0.3671
     56  OD1       21.4440    3.2320   12.0200 O.co2  77  ASP77      -0.2456
     57  OD2       19.5130    2.4120   12.6430 O.co2  77  ASP77      -0.2456
     58  N         20.9040    6.8920   10.3140 N.3    80  VAL80      -0.1231
     59  CA        19.8810    7.9220   10.3910 C.3    80  VAL80       0.1692
     60  C         20.5620    9.2760   10.2150 C.2    80  VAL80       0.2592
     61  O         21.4060    9.6660   11.0170 O.2    80  VAL80      -0.2718
     62  CB        19.1060    7.8720   11.7430 C.3    80  VAL80       0.0266
     63  CG1       18.1830    9.0790   11.8750 C.3    80  VAL80       0.0020
     64  CG2       18.2910    6.5880   11.8350 C.3    80  VAL80       0.0020
     65  N         20.2250    9.9610    9.1280 N.am   81  ILE81      -0.1966
     66  CA        20.7930   11.2720    8.8310 C.3    81  ILE81       0.1727
     67  C         20.1490   12.3440    9.7160 C.2    81  ILE81       0.2616
     68  O         20.8330   13.2060   10.2520 O.2    81  ILE81      -0.2715
     69  CB        20.5980   11.6270    7.3400 C.3    81  ILE81       0.0290
     70  CG1       21.3510   10.6210    6.4650 C.3    81  ILE81       0.0022
     71  CG2       21.0780   13.0490    7.0510 C.3    81  ILE81       0.0023
     72  CD1       21.0370   10.7390    4.9860 C.3    81  ILE81       0.0001
     73  N         18.8320   12.2580    9.8700 N.am   82  ALA82      -0.1963
     74  CA        18.0570   13.1960   10.6800 C.3    82  ALA82       0.1728
     75  C         16.6830   12.5820   10.9050 C.2    82  ALA82       0.2616
     76  O         16.2810   11.6880   10.1660 O.2    82  ALA82      -0.2715
     77  CB        17.9260   14.5340    9.9560 C.3    82  ALA82       0.0334
     78  N         15.9720   13.0410   11.9310 N.am   83  HIS83      -0.1973
     79  CA        14.6450   12.5050   12.2230 C.3    83  HIS83       0.1656
     80  C         13.8790   13.3610   13.2150 C.2    83  HIS83       0.2291
     81  O         14.4770   14.0740   14.0230 O.2    83  HIS83      -0.2864
     82  CB        14.7550   11.0850   12.7970 C.3    83  HIS83       0.0771
     83  CG        15.2680   11.0370   14.2050 C.ar   83  HIS83       0.0820
     84  ND1       14.4310   10.9340   15.2960 N.ar   83  HIS83      -0.2267
     85  CD2       16.5250   11.1010   14.7020 C.ar   83  HIS83       0.1154
     86  CE1       15.1520   10.9390   16.4050 C.ar   83  HIS83       0.1986
     87  NE2       16.4250   11.0390   16.0690 N.ar   83  HIS83      -0.2212
     88  N         25.1430   17.1230    4.7140 N.3   101  LYS101     -0.1245
     89  CA        25.0400   15.6870    4.9620 C.3   101  LYS101      0.1561
     90  C         24.4470   14.9700    3.7540 C.2   101  LYS101      0.2260
     91  O         24.3380   13.7460    3.7480 O.2   101  LYS101     -0.2867
     92  CB        24.1860   15.3970    6.1980 C.3   101  LYS101      0.0271
     93  CG        24.8870   15.6510    7.5190 C.3   101  LYS101      0.0035
     94  CD        24.0160   15.2240    8.6840 C.3   101  LYS101      0.0206
     95  CE        24.5770   15.7230   10.0070 C.3   101  LYS101      0.1093
     96  NZ        23.7520   15.2610   11.1620 N.3   101  LYS101     -0.1314
@<TRIPOS>BOND
     1    91    90    2
     2    90    89    1
     3    88    89    1
     4    89    92    1
     5    72    70    1
     6    92    93    1
     7    70    69    1
     8    71    69    1
     9    69    66    1
    10    93    94    1
    11    94    95    1
    12    66    65    1
    13    66    67    1
    14    65    60   am
    15    67    73   am
    16    67    68    2
    17    73    74    1
    18    77    74    1
    19    95    96    1
    20    76    75    2
    21    60    59    1
    22    60    61    2
    23    58    59    1
    24    59    62    1
    25    74    75    1
    26    75    78   am
    27    62    64    1
    28    62    63    1
    29    78    79    1
    30    56    55   ar
    31    79    82    1
    32    79    80    1
    33    57    55   ar
    34    82    83    1
    35    55    54    1
    36    80    81    2
    37    53    52    2
    38    52    51    1
    39    25    23    1
    40    54    51    1
    41    83    85   ar
    42    83    84   ar
    43    51    50    1
    44    34    33    1
    45    85    87   ar
    46    84    86   ar
    47    23    24    1
    48    23    22    1
    49    32    33    1
    50    32    31    1
    51    50    44   am
    52    30    31    1
    53    30    27    1
    54    87    86   ar
    55    45    44    2
    56    22    19    1
    57    19    18    1
    58    19    20    1
    59    26    27    1
    60    26    20   am
    61    44    43    1
    62    13    12    2
    63    29    28    2
    64    27    28    1
    65    20    21    2
    66    28    35   am
    67    43    42    1
    68    43    46    1
    69    12    11    1
    70    38    37    2
    71    42    37   am
    72    17    15   ar
    73    37    36    1
    74    46    47    1
    75    35    36    1
    76    35    41    1
    77    14    11    1
    78    14    15    1
    79    11    10    1
    80    15    16   ar
    81    36    39    1
    82     4     3    2
    83    41    40    1
    84    47    48   ar
    85    47    49   ar
    86    10     3   am
    87     3     2    1
    88    39    40    1
    89     5     2    1
    90     5     6    1
    91     2     1    1
    92     6     7    1
    93     7     8    1
    94     8     9    1
