@<TRIPOS>MOLECULE
tmp/1jziB00.pdb
 85 84 0 0 0
SMALL
GASTEIGER

@<TRIPOS>ATOM
      1  N         -7.9370   22.1840   40.2140 N.3    73  LEU73      -0.1231
      2  CA        -8.6510   23.4260   39.9510 C.3    73  LEU73       0.1693
      3  C         -7.6700   24.5840   39.9110 C.2    73  LEU73       0.2592
      4  O         -6.8670   24.7560   40.8340 O.2    73  LEU73      -0.2718
      5  CB        -9.6850   23.7020   41.0410 C.3    73  LEU73       0.0284
      6  CG       -11.1700   23.5160   40.7340 C.3    73  LEU73       0.0019
      7  CD1      -11.9560   24.2000   41.8490 C.3    73  LEU73       0.0001
      8  CD2      -11.5340   24.1100   39.3710 C.3    73  LEU73       0.0001
      9  N         -7.7340   25.3630   38.8340 N.am   74  LYS74      -0.1966
     10  CA        -6.8610   26.5180   38.6680 C.3    74  LYS74       0.1713
     11  C         -7.2220   27.5420   39.7380 C.2    74  LYS74       0.2458
     12  O         -8.3620   28.0050   39.8010 O.2    74  LYS74      -0.2730
     13  CB        -7.0620   27.1230   37.2750 C.3    74  LYS74       0.0311
     14  CG        -6.1990   28.3430   36.9410 C.3    74  LYS74       0.0038
     15  CD        -6.6900   28.9790   35.6510 C.3    74  LYS74       0.0206
     16  CE        -5.8860   30.2110   35.2600 C.3    74  LYS74       0.1093
     17  NZ        -6.4350   30.8440   34.0270 N.3    74  LYS74      -0.1314
     18  N         -6.2630   27.8660   40.6310 N.am   75  PRO75      -0.2716
     19  CA        -6.5500   28.8510   41.6800 C.3    75  PRO75       0.1536
     20  C         -6.9690   30.1720   41.0550 C.2    75  PRO75       0.2599
     21  O         -6.4270   30.5800   40.0250 O.2    75  PRO75      -0.2715
     22  CB        -5.2070   28.9670   42.3990 C.3    75  PRO75       0.0310
     23  CG        -4.6290   27.5940   42.2470 C.3    75  PRO75       0.0237
     24  CD        -4.9200   27.3000   40.7940 C.3    75  PRO75       0.0939
     25  N         -7.9670   30.8160   41.6580 N.am   76  ASP76      -0.1958
     26  CA        -8.4880   32.0900   41.1720 C.3    76  ASP76       0.1840
     27  C         -9.1110   32.0140   39.7820 C.2    76  ASP76       0.2622
     28  O         -9.2180   33.0340   39.1010 O.2    76  ASP76      -0.2715
     29  CB        -7.3950   33.1620   41.1680 C.3    76  ASP76       0.1450
     30  CG        -7.4910   34.0930   42.3490 C.2    76  ASP76       0.3671
     31  OD1       -8.2620   35.0800   42.2720 O.co2  76  ASP76      -0.2456
     32  OD2       -6.7850   33.8460   43.3480 O.co2  76  ASP76      -0.2456
     33  N         -9.5100   30.8170   39.3570 N.am   77  ASP77      -0.1957
     34  CA       -10.1260   30.6450   38.0460 C.3    77  ASP77       0.1840
     35  C        -11.4690   31.3750   38.0540 C.2    77  ASP77       0.2622
     36  O        -12.4390   30.9180   38.6610 O.2    77  ASP77      -0.2715
     37  CB       -10.3170   29.1530   37.7350 C.3    77  ASP77       0.1450
     38  CG       -10.6030   28.8850   36.2620 C.2    77  ASP77       0.3671
     39  OD1      -11.2580   29.7180   35.6040 O.co2  77  ASP77      -0.2456
     40  OD2      -10.1700   27.8250   35.7640 O.co2  77  ASP77      -0.2456
     41  N        -11.5080   32.5240   37.3880 N.am   78  SER78      -0.1950
     42  CA       -12.7120   33.3450   37.3260 C.3    78  SER78       0.1924
     43  C        -13.8850   32.6930   36.6030 C.2    78  SER78       0.2314
     44  O        -15.0180   33.1580   36.7130 O.2    78  SER78      -0.2863
     45  CB       -12.3900   34.6940   36.6790 C.3    78  SER78       0.2116
     46  OG       -11.8900   34.5120   35.3680 O.3    78  SER78      -0.2180
     47  N        -14.9360   29.6370   37.1870 N.3    80  VAL80      -0.1231
     48  CA       -15.6270   28.7710   38.1400 C.3    80  VAL80       0.1692
     49  C        -16.6680   29.5710   38.9260 C.2    80  VAL80       0.2592
     50  O        -16.3770   30.6440   39.4590 O.2    80  VAL80      -0.2718
     51  CB       -14.6290   28.0930   39.1160 C.3    80  VAL80       0.0266
     52  CG1      -15.3760   27.3180   40.1980 C.3    80  VAL80       0.0020
     53  CG2      -13.6980   27.1640   38.3510 C.3    80  VAL80       0.0020
     54  N        -17.8950   29.0610   38.9530 N.am   81  ILE81      -0.1966
     55  CA       -18.9930   29.7100   39.6620 C.3    81  ILE81       0.1727
     56  C        -19.0690   29.1780   41.0930 C.2    81  ILE81       0.2616
     57  O        -19.2210   29.9410   42.0480 O.2    81  ILE81      -0.2715
     58  CB       -20.3350   29.4410   38.9410 C.3    81  ILE81       0.0290
     59  CG1      -20.2810   29.9850   37.5060 C.3    81  ILE81       0.0022
     60  CG2      -21.4920   30.0530   39.7190 C.3    81  ILE81       0.0023
     61  CD1      -21.4860   29.6200   36.6660 C.3    81  ILE81       0.0001
     62  N        -18.9270   27.8640   41.2290 N.am   82  ALA82      -0.1963
     63  CA       -18.9770   27.2100   42.5300 C.3    82  ALA82       0.1728
     64  C        -18.3090   25.8440   42.4240 C.2    82  ALA82       0.2616
     65  O        -18.1540   25.3090   41.3260 O.2    82  ALA82      -0.2715
     66  CB       -20.4280   27.0610   42.9850 C.3    82  ALA82       0.0334
     67  N        -17.8820   25.2940   43.5560 N.am   83  HIS83      -0.1973
     68  CA       -17.2350   23.9890   43.5500 C.3    83  HIS83       0.1656
     69  C        -17.1720   23.3490   44.9260 C.2    83  HIS83       0.2291
     70  O        -17.2720   24.0300   45.9440 O.2    83  HIS83      -0.2864
     71  CB       -15.7960   24.1030   43.0210 C.3    83  HIS83       0.0771
     72  CG       -14.8400   24.7370   43.9870 C.ar   83  HIS83       0.0820
     73  ND1      -14.0760   24.0000   44.8690 N.ar   83  HIS83      -0.2267
     74  CD2      -14.5150   26.0330   44.1990 C.ar   83  HIS83       0.1154
     75  CE1      -13.3210   24.8190   45.5830 C.ar   83  HIS83       0.1986
     76  NE2      -13.5690   26.0560   45.1960 N.ar   83  HIS83      -0.2212
     77  N        -26.0050   34.1890   41.2300 N.3   101  LYS101     -0.1245
     78  CA       -24.7870   34.1060   40.4240 C.3   101  LYS101      0.1561
     79  C        -25.1240   33.4570   39.0860 C.2   101  LYS101      0.2260
     80  O        -24.2610   33.3280   38.2170 O.2   101  LYS101     -0.2867
     81  CB       -23.7080   33.2730   41.1220 C.3   101  LYS101      0.0271
     82  CG       -22.9330   34.0120   42.1940 C.3   101  LYS101      0.0035
     83  CD       -21.7370   33.1980   42.6660 C.3   101  LYS101      0.0206
     84  CE       -20.8220   34.0320   43.5570 C.3   101  LYS101      0.1093
     85  NZ       -19.5700   33.3160   43.9530 N.3   101  LYS101     -0.1314
@<TRIPOS>BOND
     1    17    16    1
     2    16    15    1
     3    46    45    1
     4    39    38   ar
     5    15    14    1
     6    40    38   ar
     7    38    37    1
     8    43    44    2
     9    43    42    1
    10    61    59    1
    11    45    42    1
    12    14    13    1
    13    47    48    1
    14    13    10    1
    15    42    41    1
    16    41    35   am
    17    59    58    1
    18    37    34    1
    19    34    35    1
    20    34    33    1
    21    35    36    2
    22    48    49    1
    23    48    51    1
    24    80    79    2
    25    53    51    1
    26    10     9    1
    27    10    11    1
    28     9     3   am
    29    49    54   am
    30    49    50    2
    31    58    55    1
    32    58    60    1
    33    54    55    1
    34    79    78    1
    35    28    27    2
    36    51    52    1
    37    33    27   am
    38     8     6    1
    39    55    56    1
    40    11    12    2
    41    11    18   am
    42    27    26    1
    43     3     2    1
    44     3     4    2
    45     2     1    1
    46     2     5    1
    47    21    20    2
    48    78    81    1
    49    78    77    1
    50    18    24    1
    51    18    19    1
    52     6     5    1
    53     6     7    1
    54    24    23    1
    55    20    25   am
    56    20    19    1
    57    56    62   am
    58    56    57    2
    59    81    82    1
    60    29    26    1
    61    29    30    1
    62    26    25    1
    63    62    63    1
    64    65    64    2
    65    19    22    1
    66    82    83    1
    67    23    22    1
    68    31    30   ar
    69    30    32   ar
    70    64    63    1
    71    64    67   am
    72    63    66    1
    73    83    84    1
    74    71    68    1
    75    71    72    1
    76    68    67    1
    77    68    69    1
    78    84    85    1
    79    72    74   ar
    80    72    73   ar
    81    74    76   ar
    82    73    75   ar
    83    69    70    2
    84    76    75   ar
