@<TRIPOS>MOLECULE
tmp/1jznD00.pdb
 97 90 0 0 0
SMALL
GASTEIGER

@<TRIPOS>ATOM
      1  N         47.4990   50.5770   85.2850 N.3    93  ASP93      -0.1225
      2  CA        47.7180   51.9800   85.6070 C.3    93  ASP93       0.1805
      3  C         47.0350   52.7940   84.5010 C.2    93  ASP93       0.2597
      4  O         46.4390   52.2220   83.5840 O.2    93  ASP93      -0.2718
      5  CB        49.2190   52.2910   85.6420 C.3    93  ASP93       0.1424
      6  CG        49.5420   53.5370   86.4600 C.2    93  ASP93       0.3668
      7  OD1       48.5980   54.1570   86.9910 O.co2  93  ASP93      -0.2456
      8  OD2       50.7390   53.8920   86.5740 O.co2  93  ASP93      -0.2456
      9  N         47.1170   54.1180   84.5940 N.am   94  LYS94      -0.1979
     10  CA        46.5080   55.0100   83.6040 C.3    94  LYS94       0.1596
     11  C         47.1410   54.8280   82.2160 C.2    94  LYS94       0.2287
     12  O         48.3520   54.9970   82.0490 O.2    94  LYS94      -0.2864
     13  CB        46.6650   56.4630   84.0700 C.3    94  LYS94       0.0298
     14  CG        46.2530   57.5220   83.0580 C.3    94  LYS94       0.0038
     15  CD        47.0680   58.7990   83.2780 C.3    94  LYS94       0.0206
     16  CE        46.8210   59.8280   82.1880 C.3    94  LYS94       0.1093
     17  NZ        47.8820   60.8760   82.1630 N.3    94  LYS94      -0.1314
     18  N         47.1490   51.9490   80.4540 N.3    96  GLN96      -0.1245
     19  CA        47.7880   50.6390   80.3740 C.3    96  GLN96       0.1566
     20  C         46.7420   49.5340   80.2240 C.2    96  GLN96       0.2260
     21  O         45.5900   49.6930   80.6460 O.2    96  GLN96      -0.2867
     22  CB        48.6230   50.3770   81.6370 C.3    96  GLN96       0.0367
     23  CG        49.6440   51.4550   81.9860 C.3    96  GLN96       0.0905
     24  CD        50.7240   51.6100   80.9410 C.2    96  GLN96       0.2608
     25  OE1       50.9610   50.7070   80.1330 O.2    96  GLN96      -0.2717
     26  NE2       51.4020   52.7530   80.9590 N.am   96  GLN96      -0.0878
     27  N         49.8080   49.1920   77.2950 N.3    98  ASP98      -0.1239
     28  CA        50.0370   49.8680   76.0240 C.3    98  ASP98       0.1674
     29  C         51.0360   49.1810   75.0950 C.2    98  ASP98       0.2266
     30  O         51.3620   49.7190   74.0320 O.2    98  ASP98      -0.2867
     31  CB        50.5090   51.3040   76.2890 C.3    98  ASP98       0.1410
     32  CG        51.9310   51.3600   76.8170 C.2    98  ASP98       0.3668
     33  OD1       52.3790   50.3470   77.3810 O.co2  98  ASP98      -0.2456
     34  OD2       52.6000   52.4110   76.6800 O.co2  98  ASP98      -0.2456
     35  N         53.9410   49.2230   74.8680 N.3   100  TYR100     -0.1241
     36  CA        54.8680   50.2510   74.4160 C.3   100  TYR100      0.1605
     37  C         55.9390   49.6960   73.4930 C.2   100  TYR100      0.2264
     38  O         56.5640   48.6840   73.8010 O.2   100  TYR100     -0.2867
     39  CB        55.5430   50.9260   75.6100 C.3   100  TYR100      0.0534
     40  CG        56.2130   52.2360   75.2690 C.ar  100  TYR100     -0.0201
     41  CD1       57.3170   52.6830   75.9890 C.ar  100  TYR100     -0.0009
     42  CD2       55.7190   53.0510   74.2510 C.ar  100  TYR100     -0.0009
     43  CE1       57.9100   53.9060   75.7100 C.ar  100  TYR100      0.0417
     44  CE2       56.3030   54.2770   73.9650 C.ar  100  TYR100      0.0417
     45  CZ        57.3960   54.6990   74.7000 C.ar  100  TYR100      0.1957
     46  OH        57.9570   55.9300   74.4480 O.3   100  TYR100     -0.2866
     47  N         56.7210   45.2810   75.4050 N.3   104  GLU104     -0.1245
     48  CA        56.2760   45.0830   76.7790 C.3   104  GLU104      0.1567
     49  C         55.2170   43.9930   76.9250 C.2   104  GLU104      0.2260
     50  O         54.0640   44.1830   76.5400 O.2   104  GLU104     -0.2867
     51  CB        55.7420   46.4060   77.3340 C.3   104  GLU104      0.0388
     52  CG        56.7840   47.5110   77.3730 C.3   104  GLU104      0.1160
     53  CD        56.2260   48.8460   77.8390 C.2   104  GLU104      0.3649
     54  OE1       57.0430   49.7390   78.1580 O.co2 104  GLU104     -0.2457
     55  OE2       54.9830   49.0060   77.8810 O.co2 104  GLU104     -0.2457
     56  N         54.2640   44.5890   85.9290 N.3   108  GLU108     -0.1245
     57  CA        54.9470   45.0400   87.1270 C.3   108  GLU108      0.1567
     58  C         54.0370   45.9530   87.9340 C.2   108  GLU108      0.2260
     59  O         53.1510   46.6190   87.3820 O.2   108  GLU108     -0.2867
     60  CB        56.2100   45.8130   86.7430 C.3   108  GLU108      0.0388
     61  CG        55.9090   47.1570   86.0660 C.3   108  GLU108      0.1160
     62  CD        57.1600   47.9020   85.6580 C.2   108  GLU108      0.3649
     63  OE1       57.0430   49.0200   85.1260 O.co2 108  GLU108     -0.2457
     64  OE2       58.2680   47.3750   85.8660 O.co2 108  GLU108     -0.2457
     65  N         55.4690   54.2180   91.8600 N.3   112  LEU112     -0.1245
     66  CA        54.8250   55.5440   91.9270 C.3   112  LEU112      0.1561
     67  C         53.3550   55.5210   92.3370 C.2   112  LEU112      0.2260
     68  O         52.8120   56.5470   92.7550 O.2   112  LEU112     -0.2867
     69  CB        54.9390   56.2700   90.5810 C.3   112  LEU112      0.0270
     70  CG        56.2790   56.9540   90.3030 C.3   112  LEU112      0.0019
     71  CD1       56.3680   57.3730   88.8440 C.3   112  LEU112      0.0001
     72  CD2       56.4290   58.1570   91.2350 C.3   112  LEU112      0.0001
     73  N         51.4760   47.7290   85.1870 N.3   119  ASN119     -0.1225
     74  CA        52.0350   48.3050   83.9890 C.3   119  ASN119      0.1785
     75  C         52.7470   47.2230   83.1780 C.2   119  ASN119      0.2597
     76  O         53.5780   46.4830   83.7230 O.2   119  ASN119     -0.2718
     77  CB        53.0370   49.4020   84.3530 C.3   119  ASN119      0.1169
     78  CG        53.7630   49.9500   83.1330 C.2   119  ASN119      0.2627
     79  OD1       53.1270   50.3230   82.1500 O.2   119  ASN119     -0.2716
     80  ND2       55.0920   49.9970   83.1890 N.am  119  ASN119     -0.0877
     81  N         52.4200   47.1080   81.8900 N.am  120  ASP120     -0.1960
     82  CA        53.1220   46.1360   81.0750 C.3   120  ASP120      0.1840
     83  C         54.4970   46.7560   80.8390 C.2   120  ASP120      0.2621
     84  O         54.6230   47.9580   80.6230 O.2   120  ASP120     -0.2715
     85  CB        52.3490   45.8020   79.7880 C.3   120  ASP120      0.1450
     86  CG        51.7890   47.0260   79.0700 C.2   120  ASP120      0.3671
     87  OD1       51.3950   48.0260   79.7130 O.co2 120  ASP120     -0.2456
     88  OD2       51.7180   46.9530   77.8320 O.co2 120  ASP120     -0.2456
     89  N         55.5380   45.9350   80.9240 N.am  121  GLN121     -0.1977
     90  CA        56.9010   46.4360   80.8310 C.3   121  GLN121      0.1601
     91  C         57.8270   45.5040   80.0660 C.2   121  GLN121      0.2287
     92  O         57.4680   44.3710   79.7480 O.2   121  GLN121     -0.2864
     93  CB        57.4200   46.6130   82.2660 C.3   121  GLN121      0.0394
     94  CG        58.8570   47.0790   82.4110 C.3   121  GLN121      0.0908
     95  CD        59.0360   48.5250   81.9970 C.2   121  GLN121      0.2608
     96  OE1       59.9080   48.8410   81.1870 O.2   121  GLN121     -0.2717
     97  NE2       58.2070   49.4140   82.5520 N.am  121  GLN121     -0.0878
@<TRIPOS>BOND
     1    37    38    2
     2    37    36    1
     3    44    42   ar
     4    44    45   ar
     5    30    29    2
     6    42    40   ar
     7    36    35    1
     8    36    39    1
     9    46    45    1
    10    45    43   ar
    11    29    28    1
    12    40    39    1
    13    40    41   ar
    14    47    48    1
    15    43    41   ar
    16    28    31    1
    17    28    27    1
    18    31    32    1
    19    50    49    2
    20    34    32   ar
    21    48    49    1
    22    48    51    1
    23    32    33   ar
    24    51    52    1
    25    52    53    1
    26    88    86   ar
    27    53    55   ar
    28    53    54   ar
    29    86    87   ar
    30    86    85    1
    31    92    91    2
    32    85    82    1
    33    91    90    1
    34    25    24    2
    35    20    19    1
    36    20    21    2
    37    19    18    1
    38    19    22    1
    39    84    83    2
    40    90    89    1
    41    90    93    1
    42    83    89   am
    43    83    82    1
    44    24    26   am
    45    24    23    1
    46    82    81    1
    47    96    95    2
    48    22    23    1
    49    81    75   am
    50    95    94    1
    51    95    97   am
    52    12    11    2
    53    79    78    2
    54    17    16    1
    55    16    15    1
    56    11    10    1
    57    93    94    1
    58    14    15    1
    59    14    13    1
    60    78    80   am
    61    78    77    1
    62    75    76    2
    63    75    74    1
    64     4     3    2
    65    10    13    1
    66    10     9    1
    67    74    77    1
    68    74    73    1
    69     3     9   am
    70     3     2    1
    71    63    62   ar
    72     1     2    1
    73     2     5    1
    74     5     6    1
    75    62    64   ar
    76    62    61    1
    77    56    57    1
    78    61    60    1
    79     6     8   ar
    80     6     7   ar
    81    60    57    1
    82    57    58    1
    83    59    58    2
    84    71    70    1
    85    70    69    1
    86    70    72    1
    87    69    66    1
    88    65    66    1
    89    66    67    1
    90    67    68    2
