@<TRIPOS>MOLECULE
tmp/1jzrC00.pdb
 141 138 0 0 0
SMALL
GASTEIGER

@<TRIPOS>ATOM
      1  N         30.4730    1.6830   19.4790 N.3    23  ALA23      -0.1231
      2  CA        29.8470    1.1390   18.2750 C.3    23  ALA23       0.1679
      3  C         28.7270    1.9940   17.6990 C.2    23  ALA23       0.2434
      4  O         27.6500    2.0910   18.2890 O.2    23  ALA23      -0.2733
      5  CB        29.3140   -0.2470   18.5650 C.3    23  ALA23       0.0304
      6  N         28.9620    2.6170   16.5320 N.am   24  PRO24      -0.2718
      7  CA        27.9310    3.4550   15.9140 C.3    24  PRO24       0.1535
      8  C         26.6380    2.6840   15.6280 C.2    24  PRO24       0.2598
      9  O         25.5620    3.1430   15.9720 O.2    24  PRO24      -0.2715
     10  CB        28.6110    3.9530   14.6450 C.3    24  PRO24       0.0310
     11  CG        30.0720    3.9460   15.0150 C.3    24  PRO24       0.0237
     12  CD        30.2110    2.6620   15.7530 C.3    24  PRO24       0.0939
     13  N         26.7360    1.5100   15.0140 N.am   25  ASN25      -0.1973
     14  CA        25.5300    0.7390   14.7240 C.3    25  ASN25       0.1688
     15  C         24.7860    0.4390   16.0190 C.2    25  ASN25       0.2292
     16  O         23.5670    0.2540   16.0180 O.2    25  ASN25      -0.2864
     17  CB        25.8610   -0.5710   13.9900 C.3    25  ASN25       0.1181
     18  CG        26.2300   -0.3470   12.5320 C.2    25  ASN25       0.2629
     19  OD1       25.5870    0.4410   11.8330 O.2    25  ASN25      -0.2716
     20  ND2       27.2590   -1.0480   12.0610 N.am   25  ASN25      -0.0877
     21  N         22.6970    3.4180   16.9540 N.3    28  LYS28      -0.1245
     22  CA        21.6040    3.5320   16.0030 C.3    28  LYS28       0.1561
     23  C         20.3330    2.9100   16.6060 C.2    28  LYS28       0.2260
     24  O         19.3000    3.5670   16.6940 O.2    28  LYS28      -0.2867
     25  CB        21.9870    2.8480   14.6870 C.3    28  LYS28       0.0271
     26  CG        21.1090    3.2410   13.5130 C.3    28  LYS28       0.0035
     27  CD        21.8450    3.1620   12.1670 C.3    28  LYS28       0.0206
     28  CE        21.9810    1.7360   11.6620 C.3    28  LYS28       0.1093
     29  NZ        22.5260    1.7140   10.2690 N.3    28  LYS28      -0.1314
     30  N         35.2670   -6.2430   22.4270 N.3    47  PHE47      -0.1241
     31  CA        35.8200   -6.8040   21.1990 C.3    47  PHE47       0.1605
     32  C         37.1650   -7.5010   21.4030 C.2    47  PHE47       0.2264
     33  O         37.3880   -8.5710   20.8320 O.2    47  PHE47      -0.2867
     34  CB        35.9400   -5.7150   20.1320 C.3    47  PHE47       0.0534
     35  CG        34.6140   -5.1420   19.7070 C.ar   47  PHE47      -0.0203
     36  CD1       34.5550   -3.9750   18.9410 C.ar   47  PHE47      -0.0042
     37  CD2       33.4180   -5.7600   20.0850 C.ar   47  PHE47      -0.0042
     38  CE1       33.3220   -3.4250   18.5590 C.ar   47  PHE47      -0.0003
     39  CE2       32.1810   -5.2230   19.7100 C.ar   47  PHE47      -0.0003
     40  CZ        32.1330   -4.0500   18.9440 C.ar   47  PHE47      -0.0000
     41  N         32.1040  -11.1170   21.6900 N.3    52  HIS52      -0.1226
     42  CA        31.1880  -11.1830   20.5580 C.3    52  HIS52       0.1752
     43  C         31.5160  -12.3720   19.6780 C.2    52  HIS52       0.2595
     44  O         31.2400  -12.3670   18.4840 O.2    52  HIS52      -0.2718
     45  CB        31.2610   -9.8870   19.7380 C.3    52  HIS52       0.0759
     46  CG        32.5980   -9.6430   19.1110 C.ar   52  HIS52       0.0818
     47  ND1       33.7570   -9.5290   19.8480 N.ar   52  HIS52      -0.2268
     48  CD2       32.9620   -9.5030   17.8140 C.ar   52  HIS52       0.1154
     49  CE1       34.7780   -9.3290   19.0320 C.ar   52  HIS52       0.1986
     50  NE2       34.3220   -9.3100   17.7920 N.ar   52  HIS52      -0.2212
     51  N         32.1130  -13.3930   20.2730 N.am   53  ARG53      -0.1980
     52  CA        32.4640  -14.5850   19.5280 C.3    53  ARG53       0.1597
     53  C         32.0980  -15.8330   20.3250 C.2    53  ARG53       0.2287
     54  O         32.0330  -16.9330   19.7850 O.2    53  ARG53      -0.2864
     55  CB        33.9560  -14.5600   19.1570 C.3    53  ARG53       0.0334
     56  CG        34.3450  -13.3440   18.2850 C.3    53  ARG53       0.0492
     57  CD        35.5260  -13.6360   17.3430 C.3    53  ARG53       0.2205
     58  NE        36.8200  -13.5220   18.0090 N.pl3  53  ARG53      -0.0865
     59  CZ        37.5660  -12.4220   18.0110 C.cat  53  ARG53       0.5346
     60  NH1       38.7300  -12.4100   18.6540 N.pl3  53  ARG53       0.1354
     61  NH2       37.1590  -11.3430   17.3550 N.pl3  53  ARG53       0.1354
     62  N         26.0130  -13.7110   12.8520 N.3    63  ASN63      -0.1240
     63  CA        27.0820  -12.9450   12.2070 C.3    63  ASN63       0.1653
     64  C         28.1540  -12.4800   13.1940 C.2    63  ASN63       0.2266
     65  O         29.2140  -12.0050   12.7760 O.2    63  ASN63      -0.2867
     66  CB        26.4980  -11.7310   11.4820 C.3    63  ASN63       0.1155
     67  CG        27.5350  -10.9800   10.6340 C.2    63  ASN63       0.2627
     68  OD1       27.7600   -9.7880   10.8250 O.2    63  ASN63      -0.2716
     69  ND2       28.1520  -11.6740    9.6940 N.am   63  ASN63      -0.0877
     70  N         28.2220   -9.8680   15.4230 N.3    65  ARG65      -0.1231
     71  CA        28.4820   -8.4450   15.4430 C.3    65  ARG65       0.1694
     72  C         27.4170   -7.7260   16.2650 C.2    65  ARG65       0.2592
     73  O         26.4580   -8.3440   16.7200 O.2    65  ARG65      -0.2718
     74  CB        28.4950   -7.9260   14.0030 C.3    65  ARG65       0.0321
     75  CG        29.6440   -8.4730   13.1660 C.3    65  ARG65       0.0489
     76  CD        30.9600   -7.8530   13.6100 C.3    65  ARG65       0.2205
     77  NE        32.1100   -8.2280   12.7850 N.pl3  65  ARG65      -0.0865
     78  CZ        32.7580   -9.3870   12.8750 C.cat  65  ARG65       0.5346
     79  NH1       32.3640  -10.3000   13.7550 N.pl3  65  ARG65       0.1354
     80  NH2       33.8170   -9.6270   12.1090 N.pl3  65  ARG65       0.1354
     81  N         27.6050   -6.4310   16.4880 N.am   66  VAL66      -0.1966
     82  CA        26.6240   -5.6430   17.2150 C.3    66  VAL66       0.1712
     83  C         26.1080   -4.6220   16.2070 C.2    66  VAL66       0.2458
     84  O         26.8330   -4.2280   15.2900 O.2    66  VAL66      -0.2730
     85  CB        27.2480   -4.9010   18.4200 C.3    66  VAL66       0.0289
     86  CG1       27.7000   -5.8940   19.4790 C.3    66  VAL66       0.0023
     87  CG2       28.4110   -4.0570   17.9600 C.3    66  VAL66       0.0023
     88  N         24.8480   -4.1880   16.3450 N.am   67  PRO67      -0.2727
     89  CA        23.8960   -4.5940   17.3770 C.3    67  PRO67       0.1402
     90  C         23.2410   -5.9490   17.1450 C.2    67  PRO67       0.2269
     91  O         23.4060   -6.5770   16.1060 O.2    67  PRO67      -0.2865
     92  CB        22.8710   -3.4780   17.3370 C.3    67  PRO67       0.0296
     93  CG        22.7800   -3.2150   15.8750 C.3    67  PRO67       0.0237
     94  CD        24.2420   -3.1810   15.4560 C.3    67  PRO67       0.0939
     95  N         21.2920   -7.1810   12.9330 N.3    81  GLU81      -0.1231
     96  CA        21.4200   -6.2590   11.8060 C.3    81  GLU81       0.1699
     97  C         20.6270   -4.9890   12.1480 C.2    81  GLU81       0.2593
     98  O         19.3930   -4.9840   12.1300 O.2    81  GLU81      -0.2718
     99  CB        20.9070   -6.8900   10.5130 C.3    81  GLU81       0.0402
    100  CG        21.9810   -7.6320    9.7420 C.3    81  GLU81       0.1161
    101  CD        22.9640   -6.6970    9.0350 C.2    81  GLU81       0.3649
    102  OE1       24.0390   -7.1850    8.6340 O.co2  81  GLU81      -0.2457
    103  OE2       22.6660   -5.4850    8.8710 O.co2  81  GLU81      -0.2457
    104  N         21.3510   -3.9220   12.4770 N.am   82  SER82      -0.1938
    105  CA        20.7390   -2.6510   12.8540 C.3    82  SER82       0.2055
    106  C         19.5910   -2.2330   11.9360 C.2    82  SER82       0.2643
    107  O         18.6320   -1.5980   12.3680 O.2    82  SER82      -0.2714
    108  CB        21.7940   -1.5430   12.8790 C.3    82  SER82       0.2130
    109  OG        22.1730   -1.1710   11.5650 O.3    82  SER82      -0.2179
    110  N         19.6910   -2.5880   10.6650 N.am   83  GLY83      -0.1954
    111  CA        18.6410   -2.2320    9.7310 C.3    83  GLY83       0.1869
    112  C         17.3630   -2.9860   10.0260 C.2    83  GLY83       0.2309
    113  O         16.2900   -2.3800   10.1340 O.2    83  GLY83      -0.2863
    114  N         22.9280    1.8090    5.4430 N.3   121  THR121     -0.1218
    115  CA        23.5320    0.6000    5.9920 C.3   121  THR121      0.1862
    116  C         24.4980   -0.1170    5.0480 C.2   121  THR121      0.2287
    117  O         25.3710   -0.8500    5.5080 O.2   121  THR121     -0.2866
    118  CB        22.4660   -0.4180    6.4210 C.3   121  THR121      0.1770
    119  OG1       21.6930   -0.8020    5.2800 O.3   121  THR121     -0.2211
    120  CG2       21.5510    0.1810    7.4670 C.3   121  THR121      0.0375
    121  N         29.6320    1.1830    5.8540 N.3   126  PRO126     -0.2116
    122  CA        30.7200    0.2810    5.4690 C.3   126  PRO126      0.1372
    123  C         31.9130    1.0620    4.9570 C.2   126  PRO126      0.2244
    124  O         33.0600    0.7100    5.2130 O.2   126  PRO126     -0.2868
    125  CB        30.0830   -0.5840    4.3920 C.3   126  PRO126      0.0268
    126  CG        28.6620   -0.6510    4.8360 C.3   126  PRO126      0.0207
    127  CD        28.3810    0.7940    5.1840 C.3   126  PRO126      0.0892
    128  N         26.7730    7.6190   12.8410 N.3   217  TRP217     -0.1241
    129  CA        27.8960    7.7020   11.9070 C.3   217  TRP217      0.1605
    130  C         28.3650    9.1090   11.6130 C.2   217  TRP217      0.2264
    131  O         29.5630    9.3430   11.4830 O.2   217  TRP217     -0.2867
    132  CB        27.5550    6.9490   10.6270 C.3   217  TRP217      0.0550
    133  CG        27.4670    5.4880   10.9260 C.ar  217  TRP217      0.0003
    134  CD1       26.3510    4.7800   11.2540 C.ar  217  TRP217      0.0946
    135  CD2       28.5710    4.5910   11.0800 C.ar  217  TRP217      0.0152
    136  NE1       26.6920    3.4940   11.6110 N.ar  217  TRP217     -0.2442
    137  CE2       28.0500    3.3540   11.5110 C.ar  217  TRP217      0.0810
    138  CE3       29.9560    4.7170   10.9000 C.ar  217  TRP217      0.0012
    139  CZ2       28.8620    2.2480   11.7660 C.ar  217  TRP217      0.0191
    140  CZ3       30.7640    3.6170   11.1540 C.ar  217  TRP217      0.0001
    141  CH2       30.2120    2.3990   11.5830 C.ar  217  TRP217      0.0015
@<TRIPOS>BOND
     1   125   126    1
     2   125   122    1
     3   126   127    1
     4   123   124    2
     5   123   122    1
     6   116   117    2
     7   116   115    1
     8   127   121    1
     9   119   118    1
    10   114   115    1
    11   122   121    1
    12   115   118    1
    13   118   120    1
    14   102   101   ar
    15   103   101   ar
    16   101   100    1
    17    69    67   am
    18   111   112    1
    19   111   110    1
    20   100    99    1
    21   112   113    2
    22    29    28    1
    23    99    96    1
    24   132   133    1
    25   132   129    1
    26    67    68    2
    27    67    66    1
    28   110   106   am
    29   138   135   ar
    30   138   140   ar
    31   133   135   ar
    32   133   134   ar
    33   135   137   ar
    34   140   141   ar
    35   134   136   ar
    36    66    63    1
    37   131   130    2
    38   137   136   ar
    39   137   139   ar
    40   109   108    1
    41   141   139   ar
    42   130   129    1
    43    28    27    1
    44    96    97    1
    45    96    95    1
    46    19    18    2
    47   129   128    1
    48   106   107    2
    49   106   105    1
    50    20    18   am
    51    80    78    1
    52    98    97    2
    53    97   104   am
    54    27    26    1
    55    63    62    1
    56    63    64    1
    57   104   105    1
    58    18    17    1
    59    65    64    2
    60    77    78    2
    61    77    76    1
    62   105   108    1
    63    78    79    1
    64    75    76    1
    65    75    74    1
    66    26    25    1
    67    17    14    1
    68    74    71    1
    69    10    11    1
    70    10     7    1
    71    25    22    1
    72    14    13    1
    73    14    15    1
    74    13     8   am
    75    11    12    1
    76    84    83    2
    77    70    71    1
    78    71    72    1
    79    94    93    1
    80    94    88    1
    81     8     7    1
    82     8     9    2
    83    12     6    1
    84    93    92    1
    85     7     6    1
    86    22    23    1
    87    22    21    1
    88    16    15    2
    89    91    90    2
    90    83    88   am
    91    83    82    1
    92    72    81   am
    93    72    73    2
    94    88    89    1
    95    81    82    1
    96     6     3   am
    97    23    24    2
    98    90    89    1
    99    82    85    1
   100    92    89    1
   101    57    58    1
   102    57    56    1
   103    61    59    1
   104     3     2    1
   105     3     4    2
   106    50    48   ar
   107    50    49   ar
   108    48    46   ar
   109    87    85    1
   110    58    59    2
   111    59    60    1
   112     2     5    1
   113     2     1    1
   114    56    55    1
   115    85    86    1
   116    44    43    2
   117    38    36   ar
   118    38    40   ar
   119    36    35   ar
   120    40    39   ar
   121    49    47   ar
   122    46    45    1
   123    46    47   ar
   124    55    52    1
   125    52    51    1
   126    52    53    1
   127    43    51   am
   128    43    42    1
   129    35    37   ar
   130    35    34    1
   131    39    37   ar
   132    45    42    1
   133    54    53    2
   134    34    31    1
   135    42    41    1
   136    33    32    2
   137    31    32    1
   138    31    30    1
