@<TRIPOS>MOLECULE
tmp/1k08A01.pdb
 109 110 0 0 0
SMALL
GASTEIGER

@<TRIPOS>ATOM
      1  N          9.9970   14.1530   49.7460 N.3    45  HIS45      -0.1241
      2  CA        10.2830   13.1240   50.7420 C.3    45  HIS45       0.1621
      3  C          9.6300   11.7880   50.4280 C.2    45  HIS45       0.2264
      4  O         10.2070   10.7250   50.6820 O.2    45  HIS45      -0.2867
      5  CB         9.8460   13.6010   52.1210 C.3    45  HIS45       0.0745
      6  CG        10.8850   14.4290   52.8010 C.ar   45  HIS45       0.0817
      7  ND1       10.9140   15.8020   52.6990 N.ar   45  HIS45      -0.2268
      8  CD2       11.9930   14.0730   53.4840 C.ar   45  HIS45       0.1154
      9  CE1       12.0030   16.2590   53.2880 C.ar   45  HIS45       0.1986
     10  NE2       12.6780   15.2250   53.7740 N.ar   45  HIS45      -0.2212
     11  N         11.6180   10.3150   47.5240 N.3    48  ARG48      -0.1245
     12  CA        12.9260    9.9500   48.0420 C.3    48  ARG48       0.1563
     13  C         12.8920    8.6340   48.8080 C.2    48  ARG48       0.2260
     14  O         13.8740    7.8960   48.8450 O.2    48  ARG48      -0.2867
     15  CB        13.4210   11.0840   48.9380 C.3    48  ARG48       0.0307
     16  CG        14.5820   10.7500   49.8340 C.3    48  ARG48       0.0489
     17  CD        14.8170   11.8900   50.8200 C.3    48  ARG48       0.2205
     18  NE        14.5720   11.4940   52.2060 N.pl3  48  ARG48      -0.0865
     19  CZ        14.7800   12.2780   53.2630 C.cat  48  ARG48       0.5346
     20  NH1       14.5270   11.8260   54.4860 N.pl3  48  ARG48       0.1354
     21  NH2       15.2430   13.5110   53.1040 N.pl3  48  ARG48       0.1354
     22  N         13.8950    5.4950   46.9070 N.3    51  LEU51      -0.1231
     23  CA        15.2850    5.3130   46.5150 C.3    51  LEU51       0.1693
     24  C         16.0760    4.5280   47.5590 C.2    51  LEU51       0.2591
     25  O         16.9480    3.7230   47.2110 O.2    51  LEU51      -0.2718
     26  CB        15.9530    6.6740   46.3120 C.3    51  LEU51       0.0284
     27  CG        15.5580    7.4510   45.0610 C.3    51  LEU51       0.0019
     28  CD1       15.9570    8.9020   45.2290 C.3    51  LEU51       0.0001
     29  CD2       16.2360    6.8490   43.8450 C.3    51  LEU51       0.0001
     30  N         15.7610    4.7730   48.8320 N.am   52  VAL52      -0.1980
     31  CA        16.4440    4.1450   49.9650 C.3    52  VAL52       0.1595
     32  C         16.6660    2.6430   49.8130 C.2    52  VAL52       0.2287
     33  O         17.7930    2.1560   49.9340 O.2    52  VAL52      -0.2864
     34  CB        15.6790    4.4210   51.2860 C.3    52  VAL52       0.0276
     35  CG1       16.4610    3.8840   52.4620 C.3    52  VAL52       0.0022
     36  CG2       15.4560    5.9110   51.4550 C.3    52  VAL52       0.0022
     37  N         19.0150    2.0450   46.9380 N.3    55  TRP55      -0.1241
     38  CA        20.3090    2.6130   47.2610 C.3    55  TRP55       0.1605
     39  C         21.1180    1.6450   48.1290 C.2    55  TRP55       0.2264
     40  O         22.2820    1.3620   47.8400 O.2    55  TRP55      -0.2867
     41  CB        20.1200    3.9580   47.9810 C.3    55  TRP55       0.0550
     42  CG        21.3040    4.8900   47.8480 C.ar   55  TRP55       0.0003
     43  CD1       22.4740    4.6440   47.1770 C.ar   55  TRP55       0.0946
     44  CD2       21.4350    6.2010   48.4070 C.ar   55  TRP55       0.0152
     45  NE1       23.3170    5.7200   47.2810 N.ar   55  TRP55      -0.2442
     46  CE2       22.7060    6.6980   48.0360 C.ar   55  TRP55       0.0810
     47  CE3       20.5980    7.0210   49.1870 C.ar   55  TRP55       0.0012
     48  CZ2       23.1690    7.9630   48.4090 C.ar   55  TRP55       0.0191
     49  CZ3       21.0600    8.2850   49.5670 C.ar   55  TRP55       0.0001
     50  CH2       22.3320    8.7400   49.1750 C.ar   55  TRP55       0.0015
     51  N         18.0990   20.6920   51.5740 N.3   175  ASN175     -0.1226
     52  CA        18.2190   19.7890   50.4360 C.3   175  ASN175      0.1770
     53  C         17.7770   18.3900   50.8860 C.2   175  ASN175      0.2439
     54  O         18.5300   17.6740   51.5480 O.2   175  ASN175     -0.2733
     55  CB        19.6790   19.7660   49.9610 C.3   175  ASN175      0.1168
     56  CG        19.8890   18.8730   48.7630 C.2   175  ASN175      0.2627
     57  OD1       18.9360   18.4550   48.1210 O.2   175  ASN175     -0.2716
     58  ND2       21.1450   18.5740   48.4560 N.am  175  ASN175     -0.0877
     59  N         16.5420   17.9900   50.5350 N.am  176  PRO176     -0.2718
     60  CA        16.0130   16.6730   50.9140 C.3   176  PRO176      0.1535
     61  C         16.6630   15.5070   50.1930 C.2   176  PRO176      0.2599
     62  O         16.4210   14.3590   50.5330 O.2   176  PRO176     -0.2715
     63  CB        14.5310   16.7670   50.5740 C.3   176  PRO176      0.0310
     64  CG        14.4700   17.7760   49.4670 C.3   176  PRO176      0.0237
     65  CD        15.5640   18.7690   49.7510 C.3   176  PRO176      0.0939
     66  N         17.4990   15.8040   49.2080 N.am  177  TRP177     -0.1960
     67  CA        18.1500   14.7670   48.4220 C.3   177  TRP177      0.1771
     68  C         19.4730   14.2730   48.9730 C.2   177  TRP177      0.2620
     69  O         19.8870   13.1570   48.6750 O.2   177  TRP177     -0.2715
     70  CB        18.3500   15.2670   46.9890 C.3   177  TRP177      0.0590
     71  CG        17.0660   15.7140   46.3500 C.ar  177  TRP177      0.0006
     72  CD1       16.7370   16.9800   45.9530 C.ar  177  TRP177      0.0946
     73  CD2       15.9110   14.9050   46.1130 C.ar  177  TRP177      0.0152
     74  NE1       15.4470   17.0090   45.4780 N.ar  177  TRP177     -0.2442
     75  CE2       14.9150   15.7480   45.5670 C.ar  177  TRP177      0.0810
     76  CE3       15.6230   13.5430   46.2980 C.ar  177  TRP177      0.0012
     77  CZ2       13.6460   15.2750   45.2080 C.ar  177  TRP177      0.0191
     78  CZ3       14.3590   13.0720   45.9460 C.ar  177  TRP177      0.0001
     79  CH2       13.3880   13.9390   45.4050 C.ar  177  TRP177      0.0015
     80  N         20.1460   15.0900   49.7710 N.am  178  GLU178     -0.1963
     81  CA        21.4300   14.6770   50.3120 C.3   178  GLU178      0.1733
     82  C         21.3030   13.9640   51.6420 C.2   178  GLU178      0.2616
     83  O         20.2880   14.0590   52.3180 O.2   178  GLU178     -0.2715
     84  CB        22.3590   15.8840   50.4680 C.3   178  GLU178      0.0429
     85  CG        21.9490   16.8500   51.5630 C.3   178  GLU178      0.1163
     86  CD        22.7250   18.1470   51.5100 C.2   178  GLU178      0.3649
     87  OE1       22.5440   18.9880   52.4150 O.co2 178  GLU178     -0.2457
     88  OE2       23.5190   18.3300   50.5620 O.co2 178  GLU178     -0.2457
     89  N         22.3520   13.2370   51.9950 N.am  179  LYS179     -0.1963
     90  CA        22.4180   12.5180   53.2540 C.3   179  LYS179      0.1728
     91  C         23.8090   12.7590   53.8310 C.2   179  LYS179      0.2616
     92  O         24.7940   12.2280   53.3180 O.2   179  LYS179     -0.2715
     93  CB        22.2140   11.0260   53.0320 C.3   179  LYS179      0.0311
     94  CG        22.5360   10.2020   54.2590 C.3   179  LYS179      0.0038
     95  CD        21.4570   10.3710   55.2950 C.3   179  LYS179      0.0206
     96  CE        22.0400   10.6550   56.6610 C.3   179  LYS179      0.1093
     97  NZ        21.6690    9.5770   57.6110 N.3   179  LYS179     -0.1314
     98  N         23.8830   13.5710   54.8820 N.am  180  ALA180     -0.1977
     99  CA        25.1470   13.8870   55.5350 C.3   180  ALA180      0.1597
    100  C         25.7160   12.6310   56.1630 C.2   180  ALA180      0.2287
    101  O         24.9770   11.8360   56.7390 O.2   180  ALA180     -0.2864
    102  CB        24.9290   14.9430   56.6000 C.3   180  ALA180      0.0319
    103  N         21.8810   10.2840   45.9980 N.3   217  PRO217     -0.2116
    104  CA        21.6160    9.1070   45.1590 C.3   217  PRO217      0.1372
    105  C         21.5000    9.4160   43.6700 C.2   217  PRO217      0.2244
    106  O         20.9200   10.4260   43.2740 O.2   217  PRO217     -0.2868
    107  CB        20.3130    8.5510   45.7260 C.3   217  PRO217      0.0268
    108  CG        19.6160    9.7610   46.2830 C.3   217  PRO217      0.0207
    109  CD        20.6930   10.6910   46.7760 C.3   217  PRO217      0.0892
@<TRIPOS>BOND
     1   106   105    2
     2   105   104    1
     3    29    27    1
     4    27    28    1
     5    27    26    1
     6   104   107    1
     7   104   103    1
     8    77    79   ar
     9    77    75   ar
    10    79    78   ar
    11    74    75   ar
    12    74    72   ar
    13    75    73   ar
    14   107   108    1
    15    78    76   ar
    16    72    71   ar
    17   103   109    1
    18    73    76   ar
    19    73    71   ar
    20   108   109    1
    21    26    23    1
    22    71    70    1
    23    23    22    1
    24    23    24    1
    25    37    38    1
    26    70    67    1
    27    43    45   ar
    28    43    42   ar
    29    25    24    2
    30    38    41    1
    31    38    39    1
    32    45    46   ar
    33    11    12    1
    34    24    30   am
    35    40    39    2
    36    42    41    1
    37    42    44   ar
    38    46    44   ar
    39    46    48   ar
    40    12    13    1
    41    12    15    1
    42    57    56    2
    43    44    47   ar
    44    48    50   ar
    45    67    68    1
    46    67    66    1
    47    58    56   am
    48    69    68    2
    49    56    55    1
    50    13    14    2
    51    30    31    1
    52    15    16    1
    53    68    80   am
    54    50    49   ar
    55    47    49   ar
    56    66    61   am
    57    64    65    1
    58    64    63    1
    59     1     2    1
    60    65    59    1
    61    80    81    1
    62    32    33    2
    63    32    31    1
    64    16    17    1
    65    55    52    1
    66    31    34    1
    67    61    62    2
    68    61    60    1
    69    81    84    1
    70    81    82    1
    71     3     4    2
    72     3     2    1
    73    52    53    1
    74    52    51    1
    75    84    85    1
    76    59    53   am
    77    59    60    1
    78    88    86   ar
    79    63    60    1
    80     2     5    1
    81    17    18    1
    82    53    54    2
    83    34    36    1
    84    34    35    1
    85    86    85    1
    86    86    87   ar
    87    82    89   am
    88    82    83    2
    89    89    90    1
    90     5     6    1
    91    18    19    2
    92     7     6   ar
    93     7     9   ar
    94     6     8   ar
    95    93    90    1
    96    93    94    1
    97    21    19    1
    98    90    91    1
    99    19    20    1
   100     9    10   ar
   101    92    91    2
   102     8    10   ar
   103    91    98   am
   104    94    95    1
   105    98    99    1
   106    95    96    1
   107    99   100    1
   108    99   102    1
   109   100   101    2
   110    96    97    1
