@<TRIPOS>MOLECULE
tmp/1k0aB00.pdb
 138 135 0 0 0
SMALL
GASTEIGER

@<TRIPOS>ATOM
      1  N          8.0970  -16.7550   11.5750 N.3    11  HIS11      -0.1241
      2  CA         9.3130  -17.5400   11.6030 C.3    11  HIS11       0.1621
      3  C          9.6130  -17.8050   13.0720 C.2    11  HIS11       0.2264
      4  O          9.5480  -16.8980   13.9020 O.2    11  HIS11      -0.2867
      5  CB        10.4660  -16.7750   10.9660 C.3    11  HIS11       0.0745
      6  CG        11.7760  -17.4910   11.0610 C.ar   11  HIS11       0.0817
      7  ND1       12.2740  -17.9730   12.2540 N.ar   11  HIS11      -0.2268
      8  CD2       12.6880  -17.8160   10.1140 C.ar   11  HIS11       0.1154
      9  CE1       13.4340  -18.5650   12.0360 C.ar   11  HIS11       0.1986
     10  NE2       13.7090  -18.4830   10.7460 N.ar   11  HIS11      -0.2212
     11  N         11.9090  -17.7140   14.9500 N.3    13  SER13      -0.1202
     12  CA        12.7820  -16.8160   15.7050 C.3    13  SER13       0.2020
     13  C         12.5240  -15.3330   15.4420 C.2    13  SER13       0.2619
     14  O         13.3770  -14.4870   15.7280 O.2    13  SER13      -0.2717
     15  CB        14.2510  -17.1330   15.4040 C.3    13  SER13       0.2103
     16  OG        14.5920  -16.7560   14.0800 O.3    13  SER13      -0.2182
     17  N         11.3490  -15.0250   14.8980 N.am   14  ALA14      -0.1965
     18  CA        10.9760  -13.6480   14.5970 C.3    14  ALA14       0.1713
     19  C         10.1580  -13.0730   15.7430 C.2    14  ALA14       0.2458
     20  O          9.0050  -13.4480   15.9360 O.2    14  ALA14      -0.2730
     21  CB        10.1730  -13.6030   13.3140 C.3    14  ALA14       0.0333
     22  N         10.7490  -12.1600   16.5290 N.am   15  PRO15      -0.2716
     23  CA        10.0170  -11.5630   17.6520 C.3    15  PRO15       0.1536
     24  C          8.8090  -10.7650   17.1640 C.2    15  PRO15       0.2598
     25  O          7.8160  -10.6420   17.8770 O.2    15  PRO15      -0.2715
     26  CB        11.0700  -10.6770   18.3200 C.3    15  PRO15       0.0310
     27  CG        12.3700  -11.3820   17.9760 C.3    15  PRO15       0.0237
     28  CD        12.1610  -11.7390   16.5350 C.3    15  PRO15       0.0939
     29  N          8.9020  -10.2230   15.9500 N.am   16  ASN16      -0.1973
     30  CA         7.8050   -9.4480   15.3690 C.3    16  ASN16       0.1688
     31  C          6.6420  -10.3880   15.0960 C.2    16  ASN16       0.2292
     32  O          5.4850   -9.9890   15.1620 O.2    16  ASN16      -0.2864
     33  CB         8.2160   -8.7940   14.0480 C.3    16  ASN16       0.1181
     34  CG         9.5150   -8.0420   14.1490 C.2    16  ASN16       0.2629
     35  OD1       10.5920   -8.6450   14.1770 O.2    16  ASN16      -0.2716
     36  ND2        9.4320   -6.7160   14.2040 N.am   16  ASN16      -0.0877
     37  N         13.1140  -19.8070    5.6290 N.3    38  PHE38      -0.1241
     38  CA        13.8590  -18.8320    4.8420 C.3    38  PHE38       0.1605
     39  C         15.0630  -19.4040    4.1060 C.2    38  PHE38       0.2264
     40  O         15.6440  -18.7390    3.2430 O.2    38  PHE38      -0.2867
     41  CB        14.2680  -17.6530    5.7290 C.3    38  PHE38       0.0534
     42  CG        13.1020  -16.8440    6.2030 C.ar   38  PHE38      -0.0203
     43  CD1       12.1880  -17.3820    7.0980 C.ar   38  PHE38      -0.0042
     44  CD2       12.8600  -15.5820    5.6890 C.ar   38  PHE38      -0.0042
     45  CE1       11.0450  -16.6750    7.4680 C.ar   38  PHE38      -0.0003
     46  CE2       11.7190  -14.8700    6.0510 C.ar   38  PHE38      -0.0003
     47  CZ        10.8120  -15.4170    6.9380 C.ar   38  PHE38      -0.0000
     48  N          9.9670  -16.8790    1.7130 N.3    43  HIS43      -0.1241
     49  CA         9.5490  -15.4990    1.9140 C.3    43  HIS43       0.1621
     50  C          9.6820  -14.7200    0.6150 C.2    43  HIS43       0.2264
     51  O          9.1440  -13.6220    0.4790 O.2    43  HIS43      -0.2867
     52  CB        10.3890  -14.8340    3.0050 C.3    43  HIS43       0.0745
     53  CG        11.8670  -14.9430    2.7890 C.ar   43  HIS43       0.0817
     54  ND1       12.5380  -16.1470    2.8290 N.ar   43  HIS43      -0.2268
     55  CD2       12.8080  -13.9950    2.5690 C.ar   43  HIS43       0.1154
     56  CE1       13.8290  -15.9350    2.6430 C.ar   43  HIS43       0.1986
     57  NE2       14.0190  -14.6370    2.4840 N.ar   43  HIS43      -0.2212
     58  N          2.9240  -10.1280    1.2720 N.3    52  ASN52      -0.1240
     59  CA         3.8300   -9.1190    1.7910 C.3    52  ASN52       0.1653
     60  C          4.8200   -8.7390    0.7030 C.2    52  ASN52       0.2266
     61  O          5.7580   -9.4800    0.4310 O.2    52  ASN52      -0.2867
     62  CB         4.5990   -9.6410    3.0020 C.3    52  ASN52       0.1155
     63  CG         5.4010   -8.5510    3.6870 C.2    52  ASN52       0.2627
     64  OD1        5.6550   -7.4950    3.1060 O.2    52  ASN52      -0.2716
     65  ND2        5.8090   -8.8020    4.9240 N.am   52  ASN52      -0.0877
     66  N          7.1630   -6.8550    0.7900 N.3    54  ASN54      -0.1240
     67  CA         8.4940   -6.7580    1.3780 C.3    54  ASN54       0.1653
     68  C          9.1460   -8.1350    1.4950 C.2    54  ASN54       0.2266
     69  O         10.3480   -8.2500    1.7410 O.2    54  ASN54      -0.2867
     70  CB         8.4180   -6.1080    2.7620 C.3    54  ASN54       0.1155
     71  CG         9.7750   -5.6150    3.2520 C.2    54  ASN54       0.2627
     72  OD1       10.0090   -5.4880    4.4520 O.2    54  ASN54      -0.2716
     73  ND2       10.6650   -5.3220    2.3210 N.am   54  ASN54      -0.0877
     74  N          8.8010  -10.5330    3.8480 N.3    56  ARG56      -0.1231
     75  CA         9.2890  -10.7960    5.2010 C.3    56  ARG56       0.1694
     76  C          8.1140  -11.1070    6.1130 C.2    56  ARG56       0.2592
     77  O          6.9550  -10.9100    5.7460 O.2    56  ARG56      -0.2718
     78  CB        10.0400   -9.5830    5.7640 C.3    56  ARG56       0.0321
     79  CG        11.1320   -9.0660    4.8540 C.3    56  ARG56       0.0489
     80  CD        12.4310   -8.8380    5.6010 C.3    56  ARG56       0.2205
     81  NE        13.5210   -8.4870    4.6890 N.pl3  56  ARG56      -0.0865
     82  CZ        13.9760   -9.2710    3.7100 C.cat  56  ARG56       0.5346
     83  NH1       14.9700   -8.8530    2.9370 N.pl3  56  ARG56       0.1354
     84  NH2       13.4450  -10.4730    3.5020 N.pl3  56  ARG56       0.1354
     85  N          8.4180  -11.6080    7.3010 N.am   57  VAL57      -0.1966
     86  CA         7.3830  -11.9160    8.2650 C.3    57  VAL57       0.1712
     87  C          7.5180  -10.8680    9.3650 C.2    57  VAL57       0.2458
     88  O          8.6030  -10.3130    9.5600 O.2    57  VAL57      -0.2730
     89  CB         7.5620  -13.3350    8.8460 C.3    57  VAL57       0.0289
     90  CG1        7.5310  -14.3520    7.7180 C.3    57  VAL57       0.0023
     91  CG2        8.8630  -13.4310    9.6170 C.3    57  VAL57       0.0023
     92  N          6.4310  -10.5960   10.1070 N.am   58  PRO58      -0.2727
     93  CA         5.1030  -11.2070    9.9760 C.3    58  PRO58       0.1402
     94  C          4.2030  -10.6860    8.8620 C.2    58  PRO58       0.2269
     95  O          4.3810   -9.5800    8.3590 O.2    58  PRO58      -0.2865
     96  CB         4.4830  -10.9530   11.3400 C.3    58  PRO58       0.0296
     97  CG         5.0180   -9.5980   11.6790 C.3    58  PRO58       0.0237
     98  CD         6.4840   -9.7230   11.2940 C.3    58  PRO58       0.0939
     99  N          3.5840   -5.9220    7.9860 N.3    72  GLU72      -0.1231
    100  CA         4.1910   -4.9690    8.9270 C.3    72  GLU72       0.1699
    101  C          3.5010   -5.1340   10.2890 C.2    72  GLU72       0.2593
    102  O          2.3510   -4.7170   10.4660 O.2    72  GLU72      -0.2718
    103  CB         4.0490   -3.5240    8.4310 C.3    72  GLU72       0.0402
    104  CG         5.0350   -3.1650    7.3340 C.3    72  GLU72       0.1161
    105  CD         6.4720   -3.1940    7.8260 C.2    72  GLU72       0.3649
    106  OE1        7.3630   -3.5590    7.0240 O.co2  72  GLU72      -0.2457
    107  OE2        6.7060   -2.8480    9.0120 O.co2  72  GLU72      -0.2457
    108  N          4.1960   -5.7580   11.2400 N.am   73  SER73      -0.1938
    109  CA         3.6520   -6.0050   12.5750 C.3    73  SER73       0.2055
    110  C          2.9130   -4.7980   13.1790 C.2    73  SER73       0.2643
    111  O          1.9240   -4.9580   13.9070 O.2    73  SER73      -0.2714
    112  CB         4.7670   -6.4670   13.5130 C.3    73  SER73       0.2130
    113  OG         5.7230   -5.4480   13.7190 O.3    73  SER73      -0.2179
    114  N          3.3880   -3.5930   12.8730 N.am   74  GLY74      -0.1954
    115  CA         2.7280   -2.3980   13.3750 C.3    74  GLY74       0.1869
    116  C          1.3480   -2.2240   12.7480 C.2    74  GLY74       0.2309
    117  O          0.3570   -1.9500   13.4370 O.2    74  GLY74      -0.2863
    118  N          8.7000   -0.2140   16.9120 N.3   112  THR112     -0.1218
    119  CA         8.9430   -0.7990   15.6010 C.3   112  THR112      0.1862
    120  C         10.0160   -0.0940   14.7740 C.2   112  THR112      0.2287
    121  O         10.6060   -0.7090   13.8920 O.2   112  THR112     -0.2866
    122  CB         7.6670   -0.8030   14.7590 C.3   112  THR112      0.1770
    123  OG1        7.2340    0.5460   14.5780 O.3   112  THR112     -0.2211
    124  CG2        6.5680   -1.6010   15.4390 C.3   112  THR112      0.0375
    125  N         10.9060   -8.6640   22.0790 N.3   187  TRP187     -0.1241
    126  CA        12.2660   -8.1590   22.0230 C.3   187  TRP187      0.1605
    127  C         12.9050   -8.0320   23.4020 C.2   187  TRP187      0.2264
    128  O         14.1150   -8.2280   23.5520 O.2   187  TRP187     -0.2867
    129  CB        12.2870   -6.8140   21.2890 C.3   187  TRP187      0.0550
    130  CG        11.8310   -6.9390   19.8720 C.ar  187  TRP187      0.0003
    131  CD1       10.5540   -6.8050   19.4000 C.ar  187  TRP187      0.0946
    132  CD2       12.6390   -7.3020   18.7450 C.ar  187  TRP187      0.0152
    133  NE1       10.5180   -7.0650   18.0470 N.ar  187  TRP187     -0.2442
    134  CE2       11.7850   -7.3740   17.6220 C.ar  187  TRP187      0.0810
    135  CE3       14.0060   -7.5790   18.5750 C.ar  187  TRP187      0.0012
    136  CZ2       12.2510   -7.7100   16.3490 C.ar  187  TRP187      0.0191
    137  CZ3       14.4680   -7.9140   17.3100 C.ar  187  TRP187      0.0001
    138  CH2       13.5930   -7.9760   16.2140 C.ar  187  TRP187      0.0015
@<TRIPOS>BOND
     1    61    60    2
     2    51    50    2
     3    50    49    1
     4    60    59    1
     5    66    67    1
     6    58    59    1
     7    67    68    1
     8    67    70    1
     9    68    69    2
    10    48    49    1
    11    59    62    1
    12    49    52    1
    13    73    71   am
    14    57    55   ar
    15    57    56   ar
    16    55    53   ar
    17    56    54   ar
    18    70    71    1
    19    53    54   ar
    20    53    52    1
    21    83    82    1
    22    62    63    1
    23    64    63    2
    24    40    39    2
    25    71    72    2
    26    84    82    1
    27    63    65   am
    28    82    81    2
    29    74    75    1
    30    39    38    1
    31    81    80    1
    32    38    37    1
    33    38    41    1
    34    79    80    1
    35    79    78    1
    36    75    78    1
    37    75    76    1
    38    44    46   ar
    39    44    42   ar
    40    41    42    1
    41    77    76    2
    42    46    47   ar
    43    76    85   am
    44    42    43   ar
    45    47    45   ar
    46   106   105   ar
    47    43    45   ar
    48    85    86    1
    49   104   105    1
    50   104   103    1
    51    90    89    1
    52   105   107   ar
    53    99   100    1
    54    86    89    1
    55    86    87    1
    56    95    94    2
    57   103   100    1
    58    89    91    1
    59    94    93    1
    60   100   101    1
    61    87    88    2
    62    87    92   am
    63    93    92    1
    64    93    96    1
    65    92    98    1
    66     8    10   ar
    67     8     6   ar
    68   101   102    2
    69   101   108   am
    70    10     9   ar
    71     5     6    1
    72     5     2    1
    73     6     7   ar
    74   108   109    1
    75    98    97    1
    76    96    97    1
    77     1     2    1
    78     2     3    1
    79     9     7   ar
    80   109   110    1
    81   109   112    1
    82   116   115    1
    83   116   117    2
    84   114   110   am
    85   114   115    1
    86     3     4    2
    87   110   111    2
    88    21    18    1
    89   112   113    1
    90   121   120    2
    91    33    34    1
    92    33    30    1
    93    16    15    1
    94    34    35    2
    95    34    36   am
    96   123   122    1
    97    18    17    1
    98    18    19    1
    99   122   124    1
   100   122   119    1
   101   120   119    1
   102    17    13   am
   103    11    12    1
   104    31    32    2
   105    31    30    1
   106    30    29    1
   107    15    12    1
   108    13    12    1
   109    13    14    2
   110   119   118    1
   111    19    20    2
   112    19    22   am
   113    29    24   am
   114   138   136   ar
   115   138   137   ar
   116   136   134   ar
   117    22    28    1
   118    22    23    1
   119    28    27    1
   120    24    23    1
   121    24    25    2
   122   137   135   ar
   123   134   133   ar
   124   134   132   ar
   125    23    26    1
   126    27    26    1
   127   133   131   ar
   128   135   132   ar
   129   132   130   ar
   130   131   130   ar
   131   130   129    1
   132   129   126    1
   133   126   125    1
   134   126   127    1
   135   127   128    2
