@<TRIPOS>MOLECULE
tmp/1k0aA00.pdb
 171 165 0 0 0
SMALL
GASTEIGER

@<TRIPOS>ATOM
      1  N         13.7100   19.7960   12.1620 N.3    20  HIS20      -0.1241
      2  CA        15.0910   20.1320   11.8780 C.3    20  HIS20       0.1621
      3  C         15.2300   20.3680   10.3740 C.2    20  HIS20       0.2264
      4  O         14.5380   19.7390    9.5700 O.2    20  HIS20      -0.2867
      5  CB        16.0280   19.0180   12.3080 C.3    20  HIS20       0.0745
      6  CG        17.4640   19.4160   12.2620 C.ar   20  HIS20       0.0817
      7  ND1       18.1640   19.8030   13.3850 N.ar   20  HIS20      -0.2268
      8  CD2       18.3070   19.5830   11.2140 C.ar   20  HIS20       0.1154
      9  CE1       19.3750   20.1940   13.0310 C.ar   20  HIS20       0.1986
     10  NE2       19.4870   20.0720   11.7190 N.ar   20  HIS20      -0.2212
     11  N         17.4440   19.4570    8.4170 N.3    22  SER22      -0.1202
     12  CA        17.9550   18.2700    7.7380 C.3    22  SER22       0.2020
     13  C         17.1870   17.0210    8.1680 C.2    22  SER22       0.2619
     14  O         17.6970   15.9020    8.0770 O.2    22  SER22      -0.2717
     15  CB        19.4420   18.0880    8.0650 C.3    22  SER22       0.2103
     16  OG        20.1900   19.2380    7.7060 O.3    22  SER22      -0.2182
     17  N         15.9600   17.2140    8.6420 N.am   23  ALA23      -0.1965
     18  CA        15.1390   16.0990    9.1050 C.3    23  ALA23       0.1713
     19  C         14.0280   15.7780    8.1230 C.2    23  ALA23       0.2458
     20  O         12.9760   16.4140    8.1390 O.2    23  ALA23      -0.2730
     21  CB        14.5480   16.4220   10.4710 C.3    23  ALA23       0.0333
     22  N         14.2470   14.7880    7.2420 N.am   24  PRO24      -0.2716
     23  CA        13.1910   14.4520    6.2830 C.3    24  PRO24       0.1536
     24  C         11.9070   14.1170    7.0390 C.2    24  PRO24       0.2598
     25  O         10.8210   14.5570    6.6590 O.2    24  PRO24      -0.2715
     26  CB        13.7730   13.2490    5.5380 C.3    24  PRO24       0.0310
     27  CG        15.2550   13.5010    5.6030 C.3    24  PRO24       0.0237
     28  CD        15.4410   13.9510    7.0260 C.3    24  PRO24       0.0939
     29  N         12.0510   13.3460    8.1150 N.am   25  ASN25      -0.1973
     30  CA        10.9230   12.9480    8.9490 C.3    25  ASN25       0.1688
     31  C         10.1360   14.1740    9.3760 C.2    25  ASN25       0.2292
     32  O          8.9130   14.1410    9.4540 O.2    25  ASN25      -0.2864
     33  CB        11.4230   12.1910   10.1790 C.3    25  ASN25       0.1181
     34  CG        11.6580   10.7160    9.9020 C.2    25  ASN25       0.2629
     35  OD1       12.6000   10.1250   10.4190 O.2    25  ASN25      -0.2716
     36  ND2       10.7900   10.1120    9.0940 N.am   25  ASN25      -0.0877
     37  N         20.2760   20.9880   18.2780 N.3    47  PHE47      -0.1241
     38  CA        20.7860   20.0090   19.2260 C.3    47  PHE47       0.1605
     39  C         22.1630   20.3730   19.7720 C.2    47  PHE47       0.2264
     40  O         22.4980   20.0150   20.9050 O.2    47  PHE47      -0.2867
     41  CB        20.8060   18.6170   18.5820 C.3    47  PHE47       0.0534
     42  CG        19.4350   18.0880   18.2380 C.ar   47  PHE47      -0.0203
     43  CD1       18.6890   18.6590   17.2030 C.ar   47  PHE47      -0.0042
     44  CD2       18.8770   17.0370   18.9650 C.ar   47  PHE47      -0.0042
     45  CE1       17.4070   18.1900   16.9000 C.ar   47  PHE47      -0.0003
     46  CE2       17.5950   16.5600   18.6730 C.ar   47  PHE47      -0.0003
     47  CZ        16.8590   17.1380   17.6390 C.ar   47  PHE47      -0.0000
     48  N         17.0380   19.9980   22.6510 N.3    52  HIS52      -0.1241
     49  CA        16.2640   18.7790   22.8200 C.3    52  HIS52       0.1621
     50  C         16.3330   18.3290   24.2750 C.2    52  HIS52       0.2264
     51  O         15.5460   17.4930   24.7120 O.2    52  HIS52      -0.2867
     52  CB        16.8020   17.6810   21.9070 C.3    52  HIS52       0.0745
     53  CG        18.2750   17.4650   22.0350 C.ar   52  HIS52       0.0817
     54  ND1       18.8270   16.2240   22.2710 N.ar   52  HIS52      -0.2268
     55  CD2       19.3150   18.3270   21.9360 C.ar   52  HIS52       0.1154
     56  CE1       20.1430   16.3320   22.3100 C.ar   52  HIS52       0.1986
     57  NE2       20.4650   17.5980   22.1100 N.ar   52  HIS52      -0.2212
     58  N         11.3560   10.8900   23.7940 N.3    63  ASN63      -0.1240
     59  CA        12.4770   10.3690   23.0190 C.3    63  ASN63       0.1653
     60  C         13.5420   11.4290   22.7030 C.2    63  ASN63       0.2266
     61  O         14.6790   11.1000   22.3430 O.2    63  ASN63      -0.2867
     62  CB        11.9500    9.7820   21.7110 C.3    63  ASN63       0.1155
     63  CG        12.9120    8.8130   21.0790 C.2    63  ASN63       0.2627
     64  OD1       12.8480    8.5620   19.8830 O.2    63  ASN63      -0.2716
     65  ND2       13.8010    8.2460   21.8820 N.am   63  ASN63      -0.0877
     66  N         13.6750   13.4840   20.1840 N.3    65  ARG65      -0.1231
     67  CA        13.9810   13.5310   18.7570 C.3    65  ARG65       0.1694
     68  C         12.8770   14.2980   18.0470 C.2    65  ARG65       0.2592
     69  O         11.8140   14.5370   18.6180 O.2    65  ARG65      -0.2718
     70  CB        14.0650   12.1080   18.1740 C.3    65  ARG65       0.0321
     71  CG        15.4520   11.4520   18.2330 C.3    65  ARG65       0.0489
     72  CD        16.1270   11.6980   19.5700 C.3    65  ARG65       0.2205
     73  NE        17.4500   11.0810   19.6850 N.pl3  65  ARG65      -0.0865
     74  CZ        18.3210   11.3640   20.6520 C.cat  65  ARG65       0.5346
     75  NH1       18.0180   12.2620   21.5890 N.pl3  65  ARG65       0.1354
     76  NH2       19.4890   10.7410   20.6940 N.pl3  65  ARG65       0.1354
     77  N         13.1320   14.7040   16.8090 N.am   66  VAL66      -0.1966
     78  CA        12.1200   15.4060   16.0340 C.3    66  VAL66       0.1712
     79  C         11.6950   14.4540   14.9270 C.2    66  VAL66       0.2458
     80  O         12.4610   13.5650   14.5450 O.2    66  VAL66      -0.2730
     81  CB        12.6680   16.7110   15.4180 C.3    66  VAL66       0.0289
     82  CG1       12.9950   17.6910   16.5250 C.3    66  VAL66       0.0023
     83  CG2       13.9000   16.4170   14.5510 C.3    66  VAL66       0.0023
     84  N         10.4740   14.6250   14.3870 N.am   67  PRO67      -0.2727
     85  CA         9.4730   15.6340   14.7330 C.3    67  PRO67       0.1402
     86  C          8.5700   15.3180   15.9160 C.2    67  PRO67       0.2269
     87  O          8.4400   14.1720   16.3440 O.2    67  PRO67      -0.2865
     88  CB         8.6560   15.7370   13.4560 C.3    67  PRO67       0.0296
     89  CG         8.6120   14.3080   13.0150 C.3    67  PRO67       0.0237
     90  CD        10.0550   13.8820   13.1790 C.3    67  PRO67       0.0939
     91  N          6.9170   10.8770   17.1900 N.3    81  GLU81      -0.1231
     92  CA         7.0170    9.8620   16.1390 C.3    81  GLU81       0.1699
     93  C          6.1930   10.3390   14.9260 C.2    81  GLU81       0.2593
     94  O          4.9700   10.4960   15.0100 O.2    81  GLU81      -0.2718
     95  CB         6.5220    8.4890   16.6170 C.3    81  GLU81       0.0402
     96  CG         7.5240    7.7430   17.4880 C.3    81  GLU81       0.1161
     97  CD         8.8040    7.3500   16.7450 C.2    81  GLU81       0.3649
     98  OE1        9.8980    7.5170   17.3250 O.co2  81  GLU81      -0.2457
     99  OE2        8.7260    6.8630   15.5930 O.co2  81  GLU81      -0.2457
    100  N          6.8850   10.5730   13.8110 N.am   82  SER82      -0.1938
    101  CA         6.2700   11.0480   12.5680 C.3    82  SER82       0.2055
    102  C          5.0640   10.2320   12.1070 C.2    82  SER82       0.2643
    103  O          4.0720   10.7940   11.6340 O.2    82  SER82      -0.2714
    104  CB         7.3160   11.0970   11.4370 C.3    82  SER82       0.2130
    105  OG         7.7330    9.7990   11.0240 O.3    82  SER82      -0.2179
    106  N          5.1530    8.9120   12.2530 N.am   83  GLY83      -0.1954
    107  CA         4.0570    8.0430   11.8560 C.3    83  GLY83       0.1869
    108  C          2.8170    8.1950   12.7200 C.2    83  GLY83       0.2309
    109  O          1.6980    8.0690   12.2320 O.2    83  GLY83      -0.2863
    110  N          8.5940    4.1510    7.7130 N.3   121  THR121     -0.1218
    111  CA         9.2230    4.6240    8.9450 C.3   121  THR121      0.1862
    112  C         10.1220    3.6200    9.6740 C.2   121  THR121      0.2287
    113  O         10.9550    4.0260   10.4780 O.2   121  THR121     -0.2866
    114  CB         8.1840    5.1140    9.9700 C.3   121  THR121      0.1770
    115  OG1        7.4140    4.0010   10.4300 O.3   121  THR121     -0.2211
    116  CG2        7.2590    6.1520    9.3490 C.3   121  THR121      0.0375
    117  N         19.1710    6.0730    7.0810 N.3   129  GLY129     -0.1225
    118  CA        19.9160    6.7450    8.1260 C.3   129  GLY129      0.1811
    119  C         21.2040    6.0390    8.5250 C.2   129  GLY129      0.2280
    120  O         22.1820    6.6840    8.8940 O.2   129  GLY129     -0.2866
    121  N         23.8570    6.6660    5.7750 N.3   132  LEU132     -0.1245
    122  CA        24.4680    7.9850    5.8980 C.3   132  LEU132      0.1561
    123  C         25.4450    8.0080    7.0540 C.2   132  LEU132      0.2260
    124  O         26.5350    8.5580    6.9400 O.2   132  LEU132     -0.2867
    125  CB        23.4150    9.0700    6.1190 C.3   132  LEU132      0.0270
    126  CG        22.5270    9.4580    4.9410 C.3   132  LEU132      0.0019
    127  CD1       21.4390   10.4300    5.3970 C.3   132  LEU132      0.0001
    128  CD2       23.3810   10.0820    3.8570 C.3   132  LEU132      0.0001
    129  N         29.3800    9.8790    9.0910 N.3   137  PHE137     -0.1241
    130  CA        29.5810   10.2590   10.4860 C.3   137  PHE137      0.1605
    131  C         30.1560    9.2490   11.4790 C.2   137  PHE137      0.2264
    132  O         30.2830    9.5660   12.6670 O.2   137  PHE137     -0.2867
    133  CB        28.2610   10.8060   11.0450 C.3   137  PHE137      0.0534
    134  CG        27.5580   11.7640   10.1190 C.ar  137  PHE137     -0.0203
    135  CD1       26.5030   11.3340    9.3220 C.ar  137  PHE137     -0.0042
    136  CD2       27.9600   13.0900   10.0320 C.ar  137  PHE137     -0.0042
    137  CE1       25.8580   12.2150    8.4530 C.ar  137  PHE137     -0.0003
    138  CE2       27.3240   13.9770    9.1650 C.ar  137  PHE137     -0.0003
    139  CZ        26.2720   13.5390    8.3760 C.ar  137  PHE137     -0.0000
    140  N         12.4900   11.4820    2.0040 N.3   196  TRP196     -0.1241
    141  CA        13.6530   10.6110    1.9720 C.3   196  TRP196      0.1605
    142  C         14.2010   10.3590    0.5620 C.2   196  TRP196      0.2264
    143  O         15.4160   10.2400    0.3790 O.2   196  TRP196     -0.2867
    144  CB        13.3360    9.2930    2.6810 C.3   196  TRP196      0.0550
    145  CG        13.0810    9.4780    4.1560 C.ar  196  TRP196      0.0003
    146  CD1       11.8770    9.7300    4.7570 C.ar  196  TRP196      0.0946
    147  CD2       14.0640    9.4920    5.2050 C.ar  196  TRP196      0.0152
    148  NE1       12.0500    9.8980    6.1120 N.ar  196  TRP196     -0.2442
    149  CE2       13.3810    9.7580    6.4150 C.ar  196  TRP196      0.0810
    150  CE3       15.4540    9.3060    5.2390 C.ar  196  TRP196      0.0012
    151  CZ2       14.0430    9.8440    7.6520 C.ar  196  TRP196      0.0191
    152  CZ3       16.1130    9.3890    6.4680 C.ar  196  TRP196      0.0001
    153  CH2       15.4030    9.6560    7.6590 C.ar  196  TRP196      0.0015
    154  N         17.1360   12.5620   -0.5110 N.3   199  VAL199     -0.1245
    155  CA        18.4560   12.4840    0.1030 C.3   199  VAL199      0.1561
    156  C         19.1730   11.1720   -0.2150 C.2   199  VAL199      0.2260
    157  O         20.3530   11.0340    0.0850 O.2   199  VAL199     -0.2867
    158  CB        18.3960   12.6220    1.6510 C.3   199  VAL199      0.0252
    159  CG1       17.5170   13.7930    2.0350 C.3   199  VAL199      0.0019
    160  CG2       17.9010   11.3230    2.2850 C.3   199  VAL199      0.0019
    161  N         22.7370   10.9020   -1.7920 N.3   202  ARG202     -0.1245
    162  CA        23.8940   11.0480   -0.9160 C.3   202  ARG202      0.1563
    163  C         24.5290    9.7400   -0.4500 C.2   202  ARG202      0.2260
    164  O         25.5750    9.7530    0.1950 O.2   202  ARG202     -0.2867
    165  CB        23.5210   11.9370    0.2730 C.3   202  ARG202      0.0307
    166  CG        23.0780   13.3130   -0.1910 C.3   202  ARG202      0.0489
    167  CD        22.4810   14.1840    0.9020 C.3   202  ARG202      0.2205
    168  NE        21.6990   15.2690    0.3050 N.pl3 202  ARG202     -0.0865
    169  CZ        21.0530   16.2070    0.9940 C.cat 202  ARG202      0.5346
    170  NH1       21.0950   16.2060    2.3210 N.pl3 202  ARG202      0.1354
    171  NH2       20.3510   17.1390    0.3550 N.pl3 202  ARG202      0.1354
@<TRIPOS>BOND
     1   161   162    1
     2   162   163    1
     3   162   165    1
     4   154   155    1
     5   163   164    2
     6   156   157    2
     7   156   155    1
     8   166   165    1
     9   166   167    1
    10   155   158    1
    11   168   167    1
    12   168   169    2
    13   171   169    1
    14   143   142    2
    15   142   141    1
    16   169   170    1
    17   158   159    1
    18   158   160    1
    19   141   140    1
    20   141   144    1
    21   144   145    1
    22   128   126    1
    23   145   146   ar
    24   145   147   ar
    25   146   148   ar
    26   126   127    1
    27   126   125    1
    28   147   150   ar
    29   147   149   ar
    30   150   152   ar
    31    26    27    1
    32    26    23    1
    33    27    28    1
    34   121   122    1
    35   122   125    1
    36   122   123    1
    37   148   149   ar
    38    23    24    1
    39    23    22    1
    40   149   151   ar
    41   152   153   ar
    42    25    24    2
    43   124   123    2
    44    28    22    1
    45    24    29   am
    46   117   118    1
    47    22    19   am
    48   151   153   ar
    49    16    15    1
    50   110   111    1
    51    12    15    1
    52    12    13    1
    53    12    11    1
    54    14    13    2
    55    29    30    1
    56    19    20    2
    57    19    18    1
    58   118   119    1
    59    13    17   am
    60   139   137   ar
    61   139   138   ar
    62   137   135   ar
    63   119   120    2
    64    17    18    1
    65   111   112    1
    66   111   114    1
    67    30    31    1
    68    30    33    1
    69   129   130    1
    70    36    34   am
    71    18    21    1
    72   138   136   ar
    73   135   134   ar
    74   116   114    1
    75    31    32    2
    76     4     3    2
    77   112   113    2
    78    34    33    1
    79    34    35    2
    80   114   115    1
    81   136   134   ar
    82   134   133    1
    83     3     2    1
    84   130   133    1
    85   130   131    1
    86   105   104    1
    87     8    10   ar
    88     8     6   ar
    89   104   101    1
    90   131   132    2
    91   103   102    2
    92    10     9   ar
    93   107   106    1
    94   107   108    1
    95     2     1    1
    96     2     5    1
    97   102   106   am
    98   102   101    1
    99   109   108    2
   100     6     5    1
   101     6     7   ar
   102   101   100    1
   103    89    90    1
   104    89    88    1
   105     9     7   ar
   106    90    84    1
   107    88    85    1
   108   100    93   am
   109    84    85    1
   110    84    79   am
   111    80    79    2
   112    83    81    1
   113    85    86    1
   114    93    94    2
   115    93    92    1
   116    79    78    1
   117    81    78    1
   118    81    82    1
   119    99    97   ar
   120    86    87    2
   121    78    77    1
   122    92    95    1
   123    92    91    1
   124    95    96    1
   125    97    98   ar
   126    97    96    1
   127    77    68   am
   128    45    43   ar
   129    45    47   ar
   130    43    42   ar
   131    47    46   ar
   132    68    69    2
   133    68    67    1
   134    70    71    1
   135    70    67    1
   136    71    72    1
   137    42    41    1
   138    42    44   ar
   139    37    38    1
   140    41    38    1
   141    46    44   ar
   142    67    66    1
   143    38    39    1
   144    72    73    1
   145    73    74    2
   146    39    40    2
   147    64    63    2
   148    74    76    1
   149    74    75    1
   150    63    62    1
   151    63    65   am
   152    62    59    1
   153    52    53    1
   154    52    49    1
   155    55    53   ar
   156    55    57   ar
   157    53    54   ar
   158    57    56   ar
   159    54    56   ar
   160    61    60    2
   161    48    49    1
   162    60    59    1
   163    49    50    1
   164    59    58    1
   165    50    51    2
