@<TRIPOS>MOLECULE
tmp/1k0cB00.pdb
 172 166 0 0 0
SMALL
GASTEIGER

@<TRIPOS>ATOM
      1  N         -0.8210   22.7080   21.7960 N.3    20  HIS20      -0.1241
      2  CA         0.5560   22.4440   21.3960 C.3    20  HIS20       0.1621
      3  C          0.6040   20.9410   21.1390 C.2    20  HIS20       0.2264
      4  O         -0.0510   20.1670   21.8410 O.2    20  HIS20      -0.2867
      5  CB         1.5350   22.8390   22.5060 C.3    20  HIS20       0.0745
      6  CG         2.9760   22.7190   22.1140 C.ar   20  HIS20       0.0817
      7  ND1        3.6310   21.5070   22.0380 N.ar   20  HIS20      -0.2268
      8  CD2        3.8860   23.6600   21.7610 C.ar   20  HIS20       0.1154
      9  CE1        4.8810   21.7090   21.6570 C.ar   20  HIS20       0.1986
     10  NE2        5.0610   23.0070   21.4820 N.ar   20  HIS20      -0.2212
     11  N          2.5760   18.9450   21.9520 N.3    22  SER22      -0.1202
     12  CA         3.2040   18.2550   23.0790 C.3    22  SER22       0.2020
     13  C          2.3940   18.3410   24.3620 C.2    22  SER22       0.2619
     14  O          2.6600   17.6130   25.3150 O.2    22  SER22      -0.2717
     15  CB         4.5900   18.8380   23.3450 C.3    22  SER22       0.2103
     16  OG         5.3760   18.8210   22.1690 O.3    22  SER22      -0.2182
     17  N          1.4100   19.2330   24.3840 N.am   23  ALA23      -0.1965
     18  CA         0.5730   19.4270   25.5620 C.3    23  ALA23       0.1713
     19  C         -0.5430   18.3850   25.7360 C.2    23  ALA23       0.2458
     20  O         -1.5140   18.3670   24.9790 O.2    23  ALA23      -0.2730
     21  CB        -0.0260   20.8250   25.5250 C.3    23  ALA23       0.0333
     22  N         -0.4160   17.5060   26.7460 N.am   24  PRO24      -0.2716
     23  CA        -1.4270   16.4740   27.0070 C.3    24  PRO24       0.1536
     24  C         -2.7670   17.0980   27.3890 C.2    24  PRO24       0.2598
     25  O         -3.8260   16.5620   27.0610 O.2    24  PRO24      -0.2715
     26  CB        -0.8210   15.6790   28.1560 C.3    24  PRO24       0.0310
     27  CG         0.6680   15.8690   27.9570 C.3    24  PRO24       0.0237
     28  CD         0.7480   17.3270   27.6290 C.3    24  PRO24       0.0939
     29  N         -2.7200   18.2290   28.0880 N.am   25  ASN25      -0.1973
     30  CA        -3.9480   18.9080   28.4820 C.3    25  ASN25       0.1688
     31  C         -4.7050   19.3510   27.2410 C.2    25  ASN25       0.2292
     32  O         -5.9310   19.4400   27.2470 O.2    25  ASN25      -0.2864
     33  CB        -3.6500   20.1360   29.3330 C.3    25  ASN25       0.1181
     34  CG        -3.1130   19.7870   30.6920 C.2    25  ASN25       0.2629
     35  OD1       -3.6630   18.9280   31.3940 O.2    25  ASN25      -0.2716
     36  ND2       -2.0400   20.4630   31.0880 N.am   25  ASN25      -0.0877
     37  N          5.6980   28.1580   20.7290 N.3    47  PHE47      -0.1241
     38  CA         6.2590   28.8080   21.9070 C.3    47  PHE47       0.1605
     39  C          7.6450   29.3760   21.6310 C.2    47  PHE47       0.2264
     40  O          8.1060   30.2970   22.3100 O.2    47  PHE47      -0.2867
     41  CB         6.2980   27.8330   23.0860 C.3    47  PHE47       0.0534
     42  CG         4.9450   27.5610   23.6730 C.ar   47  PHE47      -0.0203
     43  CD1        4.0590   26.6940   23.0430 C.ar   47  PHE47      -0.0042
     44  CD2        4.5280   28.2280   24.8220 C.ar   47  PHE47      -0.0042
     45  CE1        2.7740   26.4980   23.5470 C.ar   47  PHE47      -0.0003
     46  CE2        3.2440   28.0420   25.3350 C.ar   47  PHE47      -0.0003
     47  CZ         2.3660   27.1750   24.6940 C.ar   47  PHE47      -0.0000
     48  N          2.6880   32.6240   22.4730 N.3    52  HIS52      -0.1241
     49  CA         1.9270   32.5460   23.7130 C.3    52  HIS52       0.1621
     50  C          2.0890   33.8150   24.5460 C.2    52  HIS52       0.2264
     51  O          1.4770   33.9540   25.6030 O.2    52  HIS52      -0.2867
     52  CB         2.3980   31.3630   24.5430 C.3    52  HIS52       0.0745
     53  CG         3.8420   31.4390   24.9200 C.ar   52  HIS52       0.0817
     54  ND1        4.3560   30.8090   26.0320 N.ar   52  HIS52      -0.2268
     55  CD2        4.8870   32.0550   24.3180 C.ar   52  HIS52       0.1154
     56  CE1        5.6560   31.0340   26.1000 C.ar   52  HIS52       0.1986
     57  NE2        6.0030   31.7870   25.0710 N.ar   52  HIS52      -0.2212
     58  N         -2.9040   33.4180   31.9140 N.3    63  ASN63      -0.1240
     59  CA        -1.8080   32.5860   32.4170 C.3    63  ASN63       0.1653
     60  C         -0.7900   32.2270   31.3150 C.2    63  ASN63       0.2266
     61  O          0.2550   31.6140   31.5850 O.2    63  ASN63      -0.2867
     62  CB        -2.3900   31.3160   33.0310 C.3    63  ASN63       0.1155
     63  CG        -1.3430   30.4430   33.6840 C.2    63  ASN63       0.2627
     64  OD1       -1.5560   29.2450   33.8690 O.2    63  ASN63      -0.2716
     65  ND2       -0.2120   31.0360   34.0510 N.am   63  ASN63      -0.0877
     66  N         -0.6650   29.9960   28.9350 N.3    65  ARG65      -0.1231
     67  CA        -0.3500   28.5800   28.7810 C.3    65  ARG65       0.1694
     68  C         -1.4610   27.9440   27.9390 C.2    65  ARG65       0.2592
     69  O         -2.4200   28.6110   27.5610 O.2    65  ARG65      -0.2718
     70  CB        -0.2810   27.8930   30.1570 C.3    65  ARG65       0.0321
     71  CG         0.8510   28.3610   31.0850 C.3    65  ARG65       0.0489
     72  CD         2.1810   27.6750   30.7570 C.3    65  ARG65       0.2205
     73  NE         3.2860   28.0960   31.6270 N.pl3  65  ARG65      -0.0865
     74  CZ         4.0310   29.1840   31.4380 C.cat  65  ARG65       0.5346
     75  NH1        3.8070   29.9840   30.4010 N.pl3  65  ARG65       0.1354
     76  NH2        5.0010   29.4720   32.2930 N.pl3  65  ARG65       0.1354
     77  N         -1.3240   26.6630   27.6220 N.am   66  VAL66      -0.1966
     78  CA        -2.3540   25.9640   26.8530 C.3    66  VAL66       0.1712
     79  C         -2.7710   24.7570   27.6670 C.2    66  VAL66       0.2458
     80  O         -1.9890   24.2470   28.4750 O.2    66  VAL66      -0.2730
     81  CB        -1.8470   25.4930   25.4610 C.3    66  VAL66       0.0289
     82  CG1       -1.6990   26.6850   24.5360 C.3    66  VAL66       0.0023
     83  CG2       -0.5280   24.7470   25.6030 C.3    66  VAL66       0.0023
     84  N         -3.9950   24.2590   27.4450 N.am   67  PRO67      -0.2727
     85  CA        -4.9800   24.7550   26.4870 C.3    67  PRO67       0.1402
     86  C         -5.8680   25.9180   26.9310 C.2    67  PRO67       0.2269
     87  O         -6.0350   26.2010   28.1280 O.2    67  PRO67      -0.2865
     88  CB        -5.8160   23.5200   26.2210 C.3    67  PRO67       0.0296
     89  CG        -5.9550   22.9700   27.6090 C.3    67  PRO67       0.0237
     90  CD        -4.5340   23.0930   28.1720 C.3    67  PRO67       0.0939
     91  N         -7.5230   26.7870   31.3270 N.3    81  GLU81      -0.1231
     92  CA        -7.3580   25.7320   32.3240 C.3    81  GLU81       0.1699
     93  C         -8.1810   24.5650   31.7820 C.2    81  GLU81       0.2593
     94  O         -9.4030   24.6810   31.6150 O.2    81  GLU81      -0.2718
     95  CB        -7.8630   26.1610   33.7030 C.3    81  GLU81       0.0402
     96  CG        -6.8420   26.9640   34.4930 C.3    81  GLU81       0.1161
     97  CD        -5.5810   26.1690   34.7960 C.2    81  GLU81       0.3649
     98  OE1       -4.4900   26.7710   34.7890 O.co2  81  GLU81      -0.2457
     99  OE2       -5.6720   24.9470   35.0520 O.co2  81  GLU81      -0.2457
    100  N         -7.5140   23.4540   31.4790 N.am   82  SER82      -0.1938
    101  CA        -8.1870   22.2800   30.9160 C.3    82  SER82       0.2055
    102  C         -9.3680   21.7840   31.7430 C.2    82  SER82       0.2643
    103  O        -10.3960   21.3720   31.1950 O.2    82  SER82      -0.2714
    104  CB        -7.1820   21.1400   30.7080 C.3    82  SER82       0.2130
    105  OG        -6.5320   20.7830   31.9170 O.3    82  SER82      -0.2179
    106  N         -9.2270   21.8330   33.0640 N.am   83  GLY83      -0.1954
    107  CA       -10.2980   21.3850   33.9270 C.3    83  GLY83       0.1869
    108  C        -11.5180   22.2700   33.7900 C.2    83  GLY83       0.2309
    109  O        -12.6550   21.7890   33.8060 O.2    83  GLY83      -0.2863
    110  N         -5.9220   17.0650   37.4820 N.3   121  THR121     -0.1218
    111  CA        -5.2970   18.3550   37.1880 C.3   121  THR121      0.1862
    112  C         -4.3790   18.8860   38.2990 C.2   121  THR121      0.2287
    113  O         -3.4170   19.6010   38.0290 O.2   121  THR121     -0.2866
    114  CB        -6.3600   19.4460   36.8890 C.3   121  THR121      0.1770
    115  OG1       -7.1910   19.6350   38.0420 O.3   121  THR121     -0.2211
    116  CG2       -7.2230   19.0480   35.6970 C.3   121  THR121      0.0375
    117  N         -1.1620   15.5610   36.6980 N.3   125  ALA125     -0.1231
    118  CA        -0.4290   16.3820   35.7370 C.3   125  ALA125      0.1679
    119  C          0.7790   17.1540   36.2570 C.2   125  ALA125      0.2434
    120  O          1.8770   17.0140   35.7200 O.2   125  ALA125     -0.2733
    121  CB        -1.3940   17.3480   35.0350 C.3   125  ALA125      0.0304
    122  N          0.6030   17.9860   37.2980 N.am  126  PRO126     -0.2729
    123  CA         1.7650   18.7360   37.7910 C.3   126  PRO126      0.1401
    124  C          2.9670   17.8570   38.1290 C.2   126  PRO126      0.2269
    125  O          4.1090   18.1970   37.8070 O.2   126  PRO126     -0.2865
    126  CB         1.2080   19.4740   39.0150 C.3   126  PRO126      0.0296
    127  CG        -0.2280   19.7010   38.6400 C.3   126  PRO126      0.0237
    128  CD        -0.6140   18.3530   38.0490 C.3   126  PRO126      0.0939
    129  N          4.7910   16.4990   35.2100 N.3   129  GLY129     -0.1225
    130  CA         5.5660   17.6110   34.6940 C.3   129  GLY129      0.1811
    131  C          6.8310   17.8920   35.4920 C.2   129  GLY129      0.2280
    132  O          7.8640   18.2060   34.9080 O.2   129  GLY129     -0.2866
    133  N          9.3460   14.9880   34.6320 N.3   132  LEU132     -0.1245
    134  CA         9.9340   15.2240   33.3230 C.3   132  LEU132      0.1561
    135  C         10.9480   16.3430   33.3920 C.2   132  LEU132      0.2260
    136  O         12.0070   16.2720   32.7590 O.2   132  LEU132     -0.2867
    137  CB         8.8480   15.5980   32.3140 C.3   132  LEU132      0.0270
    138  CG         7.8890   14.4600   31.9550 C.3   132  LEU132      0.0019
    139  CD1        6.6430   15.0230   31.2890 C.3   132  LEU132      0.0001
    140  CD2        8.6110   13.4480   31.0480 C.3   132  LEU132      0.0001
    141  N         -2.2370   11.6450   29.3520 N.3   194  TRP194     -0.1241
    142  CA        -1.0870   11.4920   30.2280 C.3   194  TRP194      0.1605
    143  C         -0.6030   10.0640   30.2860 C.2   194  TRP194      0.2264
    144  O          0.6000    9.8130   30.2340 O.2   194  TRP194     -0.2867
    145  CB        -1.4260   11.9920   31.6310 C.3   194  TRP194      0.0550
    146  CG        -1.8030   13.4160   31.6110 C.ar  194  TRP194      0.0003
    147  CD1       -3.0430   13.9280   31.3760 C.ar  194  TRP194      0.0946
    148  CD2       -0.9110   14.5310   31.6770 C.ar  194  TRP194      0.0152
    149  NE1       -2.9780   15.2970   31.2780 N.ar  194  TRP194     -0.2442
    150  CE2       -1.6800   15.6930   31.4590 C.ar  194  TRP194      0.0810
    151  CE3        0.4660   14.6600   31.8900 C.ar  194  TRP194      0.0012
    152  CZ2       -1.1180   16.9750   31.4540 C.ar  194  TRP194      0.0191
    153  CZ3        1.0280   15.9350   31.8840 C.ar  194  TRP194      0.0001
    154  CH2        0.2340   17.0750   31.6660 C.ar  194  TRP194      0.0015
    155  N          2.2920    9.2240   28.2200 N.3   197  VAL197     -0.1245
    156  CA         3.5950    9.8740   28.3170 C.3   197  VAL197      0.1561
    157  C          4.4710    9.3860   29.4650 C.2   197  VAL197      0.2260
    158  O          5.6970    9.4360   29.3770 O.2   197  VAL197     -0.2867
    159  CB         3.4300   11.4060   28.4450 C.3   197  VAL197      0.0252
    160  CG1        4.7790   12.0530   28.7000 C.3   197  VAL197      0.0019
    161  CG2        2.8140   11.9700   27.1720 C.3   197  VAL197      0.0019
    162  N          7.9520    7.9520   29.4060 N.3   200  ARG200     -0.1245
    163  CA         9.1240    8.8250   29.3270 C.3   200  ARG200      0.1563
    164  C          9.8230    9.0670   30.6700 C.2   200  ARG200      0.2260
    165  O         10.9460    9.5610   30.7010 O.2   200  ARG200     -0.2867
    166  CB         8.7440   10.1670   28.6940 C.3   200  ARG200      0.0307
    167  CG         8.1350   10.0320   27.3070 C.3   200  ARG200      0.0489
    168  CD         7.6910   11.3770   26.7390 C.3   200  ARG200      0.2205
    169  NE         6.8730   11.1990   25.5390 N.pl3 200  ARG200     -0.0865
    170  CZ         6.2960   12.1870   24.8590 C.cat 200  ARG200      0.5346
    171  NH1        6.4430   13.4480   25.2500 N.pl3 200  ARG200      0.1354
    172  NH2        5.5600   11.9110   23.7880 N.pl3 200  ARG200      0.1354
@<TRIPOS>BOND
     1    37    38    1
     2     3     2    1
     3     3     4    2
     4     2     1    1
     5     2     5    1
     6    10     9   ar
     7    10     8   ar
     8    39    38    1
     9    39    40    2
    10     9     7   ar
    11     8     6   ar
    12    38    41    1
    13    11    12    1
    14     7     6   ar
    15     6     5    1
    16    16    15    1
    17    48    49    1
    18    43    45   ar
    19    43    42   ar
    20    12    15    1
    21    12    13    1
    22    41    42    1
    23    45    47   ar
    24    42    44   ar
    25    49    52    1
    26    49    50    1
    27   172   170    1
    28    55    53   ar
    29    55    57   ar
    30    13    17   am
    31    13    14    2
    32    17    18    1
    33    82    81    1
    34    52    53    1
    35    50    51    2
    36    47    46   ar
    37    44    46   ar
    38   170   171    1
    39   170   169    2
    40    53    54   ar
    41    20    19    2
    42    57    56   ar
    43    81    83    1
    44    81    78    1
    45    21    18    1
    46   169   168    1
    47    18    19    1
    48    19    22   am
    49    54    56   ar
    50    88    85    1
    51    88    89    1
    52    85    86    1
    53    85    84    1
    54   168   167    1
    55    22    23    1
    56    22    28    1
    57    78    77    1
    58    78    79    1
    59    86    87    2
    60    23    24    1
    61    23    26    1
    62    25    24    2
    63   161   159    1
    64    31    32    2
    65    31    30    1
    66   167   166    1
    67    24    29   am
    68    84    79   am
    69    84    90    1
    70    69    68    2
    71    89    90    1
    72    77    68   am
    73    28    27    1
    74    79    80    2
    75    68    67    1
    76    27    26    1
    77    29    30    1
    78   155   156    1
    79   156   159    1
    80   156   157    1
    81   159   160    1
    82    30    33    1
    83   166   163    1
    84    67    66    1
    85    67    70    1
    86   163   162    1
    87   163   164    1
    88    33    34    1
    89   141   142    1
    90   158   157    2
    91    70    71    1
    92   142   143    1
    93   142   145    1
    94   144   143    2
    95    75    74    1
    96   164   165    2
    97    34    36   am
    98    34    35    2
    99   104   101    1
   100   104   105    1
   101    72    71    1
   102    72    73    1
   103   101   100    1
   104   101   102    1
   105   140   138    1
   106   103   102    2
   107   149   147   ar
   108   149   150   ar
   109   139   138    1
   110    60    61    2
   111    60    59    1
   112    91    92    1
   113   147   146   ar
   114    74    73    2
   115    74    76    1
   116   152   150   ar
   117   152   154   ar
   118   150   148   ar
   119   100    93   am
   120   146   145    1
   121   146   148   ar
   122    94    93    2
   123   154   153   ar
   124   148   151   ar
   125   102   106   am
   126    93    92    1
   127   153   151   ar
   128    58    59    1
   129   138   137    1
   130   137   134    1
   131    92    95    1
   132    59    62    1
   133   136   135    2
   134    62    63    1
   135   106   107    1
   136   134   135    1
   137   134   133    1
   138    63    64    2
   139    63    65   am
   140    95    96    1
   141   108   109    2
   142   108   107    1
   143    96    97    1
   144   130   129    1
   145   130   131    1
   146    98    97   ar
   147    97    99   ar
   148   132   131    2
   149   121   118    1
   150   116   114    1
   151   120   119    2
   152   118   119    1
   153   118   117    1
   154   119   122   am
   155   114   111    1
   156   114   115    1
   157   111   110    1
   158   111   112    1
   159   122   123    1
   160   122   128    1
   161   123   124    1
   162   123   126    1
   163   125   124    2
   164   113   112    2
   165   128   127    1
   166   127   126    1
