@<TRIPOS>MOLECULE
tmp/1k0eA00.pdb
 158 156 0 0 0
SMALL
GASTEIGER

@<TRIPOS>ATOM
      1  N         22.0650   28.0490    6.4410 N.3    32  LEU32      -0.1231
      2  CA        22.2210   26.8220    7.1940 C.3    32  LEU32       0.1693
      3  C         21.9780   25.7500    6.0830 C.2    32  LEU32       0.2592
      4  O         21.0020   25.5730    5.3790 O.2    32  LEU32      -0.2718
      5  CB        21.3260   26.6510    8.4130 C.3    32  LEU32       0.0284
      6  CG        21.2790   27.7830    9.4450 C.3    32  LEU32       0.0019
      7  CD1       20.1700   27.4220   10.4560 C.3    32  LEU32       0.0001
      8  CD2       22.6630   27.9850   10.0170 C.3    32  LEU32       0.0001
      9  N         22.9590   24.9250    5.8640 N.am   33  HIS33      -0.1962
     10  CA        22.8790   23.9860    4.7510 C.3    33  HIS33       0.1787
     11  C         23.1080   22.5650    5.1620 C.2    33  HIS33       0.2620
     12  O         24.0690   22.3080    5.9040 O.2    33  HIS33      -0.2715
     13  CB        23.9310   24.4420    3.7040 C.3    33  HIS33       0.0785
     14  CG        23.6010   23.8310    2.3680 C.ar   33  HIS33       0.0821
     15  ND1       23.0890   24.5480    1.3300 N.ar   33  HIS33      -0.2267
     16  CD2       23.7130   22.5690    1.9080 C.ar   33  HIS33       0.1154
     17  CE1       22.8940   23.7870    0.2870 C.ar   33  HIS33       0.1986
     18  NE2       23.2660   22.5720    0.6150 N.ar   33  HIS33      -0.2212
     19  N         22.2460   21.6400    4.7020 N.am   34  SER34      -0.1950
     20  CA        22.4070   20.2690    5.1750 C.3    34  SER34       0.1924
     21  C         23.4470   19.5070    4.4090 C.2    34  SER34       0.2314
     22  O         23.5150   18.2720    4.5010 O.2    34  SER34      -0.2863
     23  CB        21.0290   19.5210    5.0880 C.3    34  SER34       0.2116
     24  OG        20.2990   19.9600    6.2360 O.3    34  SER34      -0.2180
     25  N         19.3900   13.4950    9.4460 N.3    41  TYR41      -0.1241
     26  CA        19.0300   14.8340    9.8330 C.3    41  TYR41       0.1605
     27  C         19.5340   15.8820    8.9150 C.2    41  TYR41       0.2264
     28  O         20.1970   16.8890    9.2940 O.2    41  TYR41      -0.2867
     29  CB        19.7030   15.0160   11.1750 C.3    41  TYR41       0.0534
     30  CG        19.0770   14.0700   12.1850 C.ar   41  TYR41      -0.0201
     31  CD1       17.6760   14.0610   12.3520 C.ar   41  TYR41      -0.0009
     32  CD2       19.9080   13.2370   12.9270 C.ar   41  TYR41      -0.0009
     33  CE1       17.1870   13.1660   13.3010 C.ar   41  TYR41       0.0417
     34  CE2       19.4570   12.3390   13.8770 C.ar   41  TYR41       0.0417
     35  CZ        18.0590   12.3510   14.0220 C.ar   41  TYR41       0.1957
     36  OH        17.5520   11.4540   14.9720 O.3    41  TYR41      -0.2866
     37  N         17.3590   16.9770    6.2350 N.3    43  ARG43      -0.1231
     38  CA        16.1800   17.4000    5.5450 C.3    43  ARG43       0.1694
     39  C         16.1780   18.8170    5.0090 C.2    43  ARG43       0.2592
     40  O         15.6710   19.0040    3.9100 O.2    43  ARG43      -0.2718
     41  CB        14.9550   17.3510    6.5110 C.3    43  ARG43       0.0321
     42  CG        13.6890   17.8720    5.7470 C.3    43  ARG43       0.0489
     43  CD        12.4830   17.0390    6.2280 C.3    43  ARG43       0.2205
     44  NE        11.2170   17.6200    5.7730 N.pl3  43  ARG43      -0.0865
     45  CZ        10.0900   17.6540    6.4250 C.cat  43  ARG43       0.5346
     46  NH1        9.9830   17.1320    7.6350 N.pl3  43  ARG43       0.1354
     47  NH2        8.9600   18.1920    5.9800 N.pl3  43  ARG43       0.1354
     48  N         16.6970   19.8270    5.7370 N.am   44  PHE44      -0.1976
     49  CA        16.5120   21.1860    5.3630 C.3    44  PHE44       0.1639
     50  C         17.7220   22.1200    5.2420 C.2    44  PHE44       0.2290
     51  O         18.7000   21.8100    5.8820 O.2    44  PHE44      -0.2864
     52  CB        15.7460   21.9740    6.4680 C.3    44  PHE44       0.0560
     53  CG        14.3760   21.4550    6.7770 C.ar   44  PHE44      -0.0200
     54  CD1       13.3050   21.7820    5.9420 C.ar   44  PHE44      -0.0042
     55  CD2       14.1610   20.6550    7.8760 C.ar   44  PHE44      -0.0042
     56  CE1       12.0300   21.3050    6.2350 C.ar   44  PHE44      -0.0003
     57  CE2       12.8930   20.2050    8.1460 C.ar   44  PHE44      -0.0003
     58  CZ        11.8250   20.5200    7.3300 C.ar   44  PHE44      -0.0000
     59  N         18.1210   26.3650    5.0890 N.3    46  ILE46      -0.1245
     60  CA        17.3810   27.5830    5.4620 C.3    46  ILE46       0.1561
     61  C         18.0950   28.8340    5.1310 C.2    46  ILE46       0.2260
     62  O         19.3270   28.9430    5.4640 O.2    46  ILE46      -0.2867
     63  CB        17.1370   27.4570    7.0020 C.3    46  ILE46       0.0252
     64  CG1       16.1510   26.3680    7.4570 C.3    46  ILE46       0.0019
     65  CG2       16.7060   28.7780    7.6440 C.3    46  ILE46       0.0019
     66  CD1       16.3410   26.1620    8.9840 C.3    46  ILE46       0.0001
     67  N         10.4200   24.1780   10.1510 N.3    99  PRO99      -0.2168
     68  CA        10.9990   24.1340   11.5320 C.3    99  PRO99       0.1057
     69  C         11.4490   25.5490   11.9160 C.3    99  PRO99       0.1993
     70  O         11.4260   25.7330   13.1580 O.3    99  PRO99      -0.2189
     71  CB        12.1000   23.0320   11.4290 C.3    99  PRO99       0.0215
     72  CG        12.5680   23.3210   10.0190 C.3    99  PRO99       0.0203
     73  CD        11.2890   23.4680    9.2030 C.3    99  PRO99       0.0888
     74  N         25.9850   17.4990    7.4020 N.3   238  PRO238     -0.2102
     75  CA        24.5690   17.8390    7.6850 C.3   238  PRO238      0.1504
     76  C         24.3480   19.1010    8.5130 C.2   238  PRO238      0.2576
     77  O         23.2380   19.6360    8.5930 O.2   238  PRO238     -0.2718
     78  CB        24.0860   16.6210    8.5010 C.3   238  PRO238      0.0282
     79  CG        25.3190   16.0440    9.0860 C.3   238  PRO238      0.0208
     80  CD        26.3600   16.2220    7.9980 C.3   238  PRO238      0.0893
     81  N         25.3470   19.7120    9.1910 N.am  239  PHE239     -0.1963
     82  CA        25.0680   20.9670    9.9280 C.3   239  PHE239      0.1771
     83  C         26.0070   22.1070    9.4900 C.2   239  PHE239      0.2620
     84  O         26.6110   22.8570   10.2890 O.2   239  PHE239     -0.2715
     85  CB        25.1090   20.7670   11.4800 C.3   239  PHE239      0.0574
     86  CG        23.9220   19.8350   11.8200 C.ar  239  PHE239     -0.0200
     87  CD1       24.0320   18.4430   11.6790 C.ar  239  PHE239     -0.0042
     88  CD2       22.7290   20.3320   12.2500 C.ar  239  PHE239     -0.0042
     89  CE1       22.9610   17.6500   11.9540 C.ar  239  PHE239     -0.0003
     90  CE2       21.6460   19.5560   12.5560 C.ar  239  PHE239     -0.0003
     91  CZ        21.7660   18.2290   12.4190 C.ar  239  PHE239     -0.0000
     92  N         26.1320   22.2690    8.1770 N.am  240  SER240     -0.1936
     93  CA        26.9370   23.3000    7.5490 C.3   240  SER240      0.2055
     94  C         26.1340   24.6380    7.5540 C.2   240  SER240      0.2642
     95  O         24.8970   24.7110    7.7200 O.2   240  SER240     -0.2714
     96  CB        27.3980   22.8920    6.1440 C.3   240  SER240      0.2130
     97  OG        28.0130   21.6150    6.1480 O.3   240  SER240     -0.2179
     98  N         26.8920   25.7260    7.3680 N.am  241  ALA241     -0.1977
     99  CA        26.4420   27.1170    7.4340 C.3   241  ALA241      0.1597
    100  C         27.4000   28.1140    6.8730 C.2   241  ALA241      0.2287
    101  O         28.6150   28.0170    6.9320 O.2   241  ALA241     -0.2864
    102  CB        26.2100   27.3860    8.9310 C.3   241  ALA241      0.0319
    103  N         25.4710   18.0520   15.4110 N.3   257  ARG257     -0.1301
    104  CA        24.3450   18.6630   16.0380 C.3   257  ARG257      0.1248
    105  C         24.6450   18.8650   17.5370 C.3   257  ARG257      0.2009
    106  O         25.0980   17.8790   18.1130 O.3   257  ARG257     -0.2188
    107  CB        23.0740   17.8240   15.9290 C.3   257  ARG257      0.0254
    108  CG        21.9960   18.5260   16.7760 C.3   257  ARG257      0.0485
    109  CD        20.6950   17.7870   16.4940 C.3   257  ARG257      0.2205
    110  NE        20.0330   18.4450   15.3760 N.pl3 257  ARG257     -0.0865
    111  CZ        19.2190   17.8160   14.5560 C.cat 257  ARG257      0.5346
    112  NH1       18.9890   16.5260   14.7530 N.pl3 257  ARG257      0.1354
    113  NH2       18.5980   18.3850   13.5300 N.pl3 257  ARG257      0.1354
    114  N         26.2190   27.3740   15.9580 N.3   378  ILE378     -0.1231
    115  CA        25.4620   28.1970   14.9850 C.3   378  ILE378      0.1692
    116  C         24.0270   27.7100   14.9600 C.2   378  ILE378      0.2593
    117  O         23.7930   26.4800   15.0550 O.2   378  ILE378     -0.2718
    118  CB        26.0700   28.0940   13.6250 C.3   378  ILE378      0.0266
    119  CG1       27.3670   28.9010   13.5800 C.3   378  ILE378      0.0019
    120  CG2       25.2080   28.5340   12.4090 C.3   378  ILE378      0.0020
    121  CD1       27.9570   28.7880   12.1050 C.3   378  ILE378      0.0001
    122  N         22.9160   28.4210   14.8440 N.am  379  GLY379     -0.1942
    123  CA        21.7030   27.6690   14.8460 C.3   379  GLY379      0.2014
    124  C         20.6180   28.7490   14.8660 C.2   379  GLY379      0.2638
    125  O         20.9100   29.9250   14.6870 O.2   379  GLY379     -0.2714
    126  N         19.3700   28.3730   15.0970 N.am  380  TYR380     -0.1973
    127  CA        18.2340   29.2660   15.1430 C.3   380  TYR380      0.1639
    128  C         17.3420   29.0910   16.3550 C.2   380  TYR380      0.2290
    129  O         17.3360   27.9690   16.9160 O.2   380  TYR380     -0.2864
    130  CB        17.3470   29.0480   13.8760 C.3   380  TYR380      0.0560
    131  CG        16.7680   27.6550   13.6580 C.ar  380  TYR380     -0.0198
    132  CD1       15.5580   27.2390   14.3080 C.ar  380  TYR380     -0.0009
    133  CD2       17.3590   26.6940   12.8210 C.ar  380  TYR380     -0.0009
    134  CE1       15.0120   26.0220   14.1480 C.ar  380  TYR380      0.0417
    135  CE2       16.8080   25.4130   12.6340 C.ar  380  TYR380      0.0417
    136  CZ        15.6300   25.1020   13.3080 C.ar  380  TYR380      0.1957
    137  OH        15.0630   23.8780   13.1570 O.3   380  TYR380     -0.2866
    138  N         17.4680   24.7690   16.7440 N.3   388  ASP388     -0.1225
    139  CA        18.3950   23.7130   16.2470 C.3   388  ASP388      0.1805
    140  C         19.7750   24.4390   16.2740 C.2   388  ASP388      0.2598
    141  O         19.9410   25.6170   16.0130 O.2   388  ASP388     -0.2718
    142  CB        18.0970   23.0560   14.9100 C.3   388  ASP388      0.1424
    143  CG        18.7510   21.7280   14.6370 C.2   388  ASP388      0.3668
    144  OD1       19.4110   21.1450   15.5150 O.co2 388  ASP388     -0.2456
    145  OD2       18.6320   21.1840   13.5120 O.co2 388  ASP388     -0.2456
    146  N         20.8110   23.6770   16.6200 N.am  389  THR389     -0.1939
    147  CA        22.1400   24.2020   16.7820 C.3   389  THR389      0.2028
    148  C         23.1770   23.1200   16.5480 C.2   389  THR389      0.2639
    149  O         23.0370   21.8950   16.8300 O.2   389  THR389     -0.2714
    150  CB        22.4800   24.7150   18.2030 C.3   389  THR389      0.1808
    151  OG1       22.0850   23.6640   19.1330 O.3   389  THR389     -0.2208
    152  CG2       21.7390   25.9920   18.5260 C.3   389  THR389      0.0379
    153  N         24.2720   23.6090   16.0160 N.am  390  SER390     -0.2003
    154  CA        25.4080   22.7920   15.7100 C.3   390  SER390      0.1610
    155  C         26.5290   22.9650   16.6710 C.3   390  SER390      0.2063
    156  O         26.3050   23.8330   17.4750 O.3   390  SER390     -0.2184
    157  CB        25.9380   23.2400   14.3390 C.3   390  SER390      0.2063
    158  OG        26.8660   24.3890   14.5160 O.3   390  SER390     -0.2184
@<TRIPOS>BOND
     1    17    18   ar
     2    17    15   ar
     3    18    16   ar
     4    15    14   ar
     5    16    14   ar
     6    14    13    1
     7    13    10    1
     8    40    39    2
     9    21    22    2
    10    21    20    1
    11    19    11   am
    12    19    20    1
    13    10    11    1
    14    10     9    1
    15    39    38    1
    16    39    48   am
    17    23    20    1
    18    23    24    1
    19    59    60    1
    20    61    60    1
    21    61    62    2
    22    11    12    2
    23    50    49    1
    24    50    51    2
    25    49    48    1
    26    49    52    1
    27     4     3    2
    28    60    63    1
    29    38    37    1
    30    38    41    1
    31    42    43    1
    32    42    41    1
    33    44    43    1
    34    44    45    2
    35     9     3   am
    36    54    56   ar
    37    54    53   ar
    38    47    45    1
    39     3     2    1
    40    96    97    1
    41    96    93    1
    42    56    58   ar
    43    45    46    1
    44     1     2    1
    45    52    53    1
    46    53    55   ar
    47   100   101    2
    48   100    99    1
    49    63    64    1
    50    63    65    1
    51     2     5    1
    52    58    57   ar
    53    98    99    1
    54    98    94   am
    55    74    75    1
    56    74    80    1
    57    99   102    1
    58    64    66    1
    59    93    94    1
    60    93    92    1
    61    94    95    2
    62    75    78    1
    63    75    76    1
    64    55    57   ar
    65    80    79    1
    66    92    83   am
    67     5     6    1
    68    78    79    1
    69    76    77    2
    70    76    81   am
    71    27    28    2
    72    27    26    1
    73    81    82    1
    74    73    72    1
    75    73    67    1
    76     6     8    1
    77     6     7    1
    78    25    26    1
    79    83    82    1
    80    83    84    2
    81    26    29    1
    82    82    85    1
    83    72    71    1
    84    67    68    1
    85    29    30    1
    86    71    68    1
    87    85    86    1
    88    68    69    1
    89    87    86   ar
    90    87    89   ar
    91    86    88   ar
    92    69    70    1
    93    89    91   ar
    94   121   119    1
    95    30    31   ar
    96    30    32   ar
    97    88    90   ar
    98    31    33   ar
    99   120   118    1
   100    91    90   ar
   101   135   133   ar
   102   135   136   ar
   103   133   131   ar
   104    32    34   ar
   105   137   136    1
   106    33    35   ar
   107   136   134   ar
   108   145   143   ar
   109   113   111    1
   110   119   118    1
   111   118   115    1
   112   131   130    1
   113   131   132   ar
   114   130   127    1
   115    34    35   ar
   116    35    36    1
   117   134   132   ar
   118   157   158    1
   119   157   154    1
   120   111   112    1
   121   111   110    2
   122   143   142    1
   123   143   144   ar
   124   125   124    2
   125   122   123    1
   126   122   116   am
   127   123   124    1
   128   124   126   am
   129   142   139    1
   130   116   115    1
   131   116   117    2
   132   115   114    1
   133   126   127    1
   134   127   128    1
   135   110   109    1
   136   103   104    1
   137   154   153    1
   138   154   155    1
   139   107   104    1
   140   107   108    1
   141   141   140    2
   142   153   148   am
   143   104   105    1
   144   139   140    1
   145   139   138    1
   146   140   146   am
   147   128   129    2
   148   109   108    1
   149   148   147    1
   150   148   149    2
   151   146   147    1
   152   155   156    1
   153   147   150    1
   154   105   106    1
   155   150   152    1
   156   150   151    1
