@<TRIPOS>MOLECULE
tmp/1k0gB00.pdb
 165 164 0 0 0
SMALL
GASTEIGER

@<TRIPOS>ATOM
      1  N         56.5110    7.2090   29.6650 N.3    34  LEU34      -0.1231
      2  CA        55.6160    7.1050   30.7890 C.3    34  LEU34       0.1693
      3  C         54.6360    8.2950   30.6360 C.2    34  LEU34       0.2592
      4  O         55.0300    9.4550   30.6150 O.2    34  LEU34      -0.2718
      5  CB        56.2540    7.1710   32.1560 C.3    34  LEU34       0.0284
      6  CG        57.3930    6.1310   32.3520 C.3    34  LEU34       0.0019
      7  CD1       58.0110    6.2960   33.7610 C.3    34  LEU34       0.0001
      8  CD2       56.8110    4.7610   32.0020 C.3    34  LEU34       0.0001
      9  N         53.3600    8.0140   30.5200 N.am   35  HIS35      -0.1962
     10  CA        52.3710    9.0320   30.2890 C.3    35  HIS35       0.1787
     11  C         51.2430    8.9980   31.2990 C.2    35  HIS35       0.2620
     12  O         50.7150    7.9660   31.6750 O.2    35  HIS35      -0.2715
     13  CB        51.8420    8.7950   28.8550 C.3    35  HIS35       0.0785
     14  CG        51.1650   10.0070   28.3260 C.ar   35  HIS35       0.0821
     15  ND1       51.7560   10.8840   27.3710 N.ar   35  HIS35      -0.2267
     16  CD2       49.9860   10.5520   28.5720 C.ar   35  HIS35       0.1154
     17  CE1       50.9230   11.8900   27.0940 C.ar   35  HIS35       0.1986
     18  NE2       49.8120   11.7210   27.8110 N.ar   35  HIS35      -0.2212
     19  N         50.8470   10.1840   31.7400 N.am   36  SER36      -0.1950
     20  CA        49.7800   10.3440   32.7510 C.3    36  SER36       0.1924
     21  C         48.3990   10.3430   32.1340 C.2    36  SER36       0.2314
     22  O         47.3440   10.6060   32.7360 O.2    36  SER36      -0.2863
     23  CB        50.1290   11.6180   33.5910 C.3    36  SER36       0.2116
     24  OG        51.1620   11.2150   34.5790 O.3    36  SER36      -0.2180
     25  N         46.9840   14.8810   40.9810 N.3    42  PRO42      -0.2102
     26  CA        48.3330   15.1170   41.5550 C.3    42  PRO42       0.1504
     27  C         49.1980   13.9460   41.2400 C.2    42  PRO42       0.2575
     28  O         50.3820   14.0800   41.0810 O.2    42  PRO42      -0.2718
     29  CB        48.1160   15.2150   43.0670 C.3    42  PRO42       0.0282
     30  CG        46.6240   15.3810   43.2520 C.3    42  PRO42       0.0208
     31  CD        45.9550   14.7760   42.0310 C.3    42  PRO42       0.0893
     32  N         48.5490   12.7680   41.1370 N.am   43  TYR43      -0.1977
     33  CA        49.4440   11.6340   40.8060 C.3    43  TYR43       0.1639
     34  C         49.4640   11.4580   39.3040 C.2    43  TYR43       0.2290
     35  O         49.8930   10.4110   38.7310 O.2    43  TYR43      -0.2864
     36  CB        49.0090   10.3170   41.5120 C.3    43  TYR43       0.0560
     37  CG        47.5300   10.1120   41.3200 C.ar   43  TYR43      -0.0198
     38  CD1       46.9280    9.4570   40.2760 C.ar   43  TYR43      -0.0009
     39  CD2       46.6750   10.6550   42.3240 C.ar   43  TYR43      -0.0009
     40  CE1       45.5460    9.3090   40.1750 C.ar   43  TYR43       0.0417
     41  CE2       45.2830   10.5300   42.2580 C.ar   43  TYR43       0.0417
     42  CZ        44.7390    9.8580   41.1820 C.ar   43  TYR43       0.1957
     43  OH        43.3950    9.7300   41.0890 O.3    43  TYR43      -0.2866
     44  N         50.4800   14.2020   37.3440 N.3    45  ARG45      -0.1231
     45  CA        51.1800   15.4110   36.9890 C.3    45  ARG45       0.1694
     46  C         52.1980   15.2370   35.8730 C.2    45  ARG45       0.2592
     47  O         52.2840   16.2080   35.0990 O.2    45  ARG45      -0.2718
     48  CB        51.9260   15.9570   38.2380 C.3    45  ARG45       0.0321
     49  CG        52.6410   17.2870   38.0980 C.3    45  ARG45       0.0489
     50  CD        53.2150   17.8350   39.4210 C.3    45  ARG45       0.2205
     51  NE        54.2070   18.9120   38.9840 N.pl3  45  ARG45      -0.0865
     52  CZ        55.0230   19.3640   39.8980 C.cat  45  ARG45       0.5346
     53  NH1       54.9050   18.8360   41.1380 N.pl3  45  ARG45       0.1354
     54  NH2       55.9360   20.2880   39.6820 N.pl3  45  ARG45       0.1354
     55  N         52.9410   14.1360   35.7580 N.am   46  PHE46      -0.1976
     56  CA        53.9820   14.1170   34.7540 C.3    46  PHE46       0.1639
     57  C         53.8940   13.0420   33.6560 C.2    46  PHE46       0.2290
     58  O         53.2710   12.0040   33.8460 O.2    46  PHE46      -0.2864
     59  CB        55.3270   13.8580   35.4100 C.3    46  PHE46       0.0560
     60  CG        55.6840   14.7340   36.5630 C.ar   46  PHE46      -0.0200
     61  CD1       56.3330   15.9420   36.2630 C.ar   46  PHE46      -0.0042
     62  CD2       55.4000   14.3960   37.8730 C.ar   46  PHE46      -0.0042
     63  CE1       56.6920   16.8090   37.3210 C.ar   46  PHE46      -0.0003
     64  CE2       55.7740   15.2930   38.8970 C.ar   46  PHE46      -0.0003
     65  CZ        56.4180   16.4980   38.6620 C.ar   46  PHE46      -0.0000
     66  N         56.9610   11.3990   30.9510 N.3    48  ILE48      -0.1245
     67  CA        58.4260   11.2340   30.9180 C.3    48  ILE48       0.1561
     68  C         58.7470   10.4610   29.6570 C.2    48  ILE48       0.2260
     69  O         58.1310    9.4440   29.3290 O.2    48  ILE48      -0.2867
     70  CB        59.0020   10.4900   32.1160 C.3    48  ILE48       0.0252
     71  CG1       58.6680   11.1720   33.4620 C.3    48  ILE48       0.0019
     72  CG2       60.4940   10.2960   32.1020 C.3    48  ILE48       0.0019
     73  CD1       58.7130   10.3120   34.7270 C.3    48  ILE48       0.0001
     74  N         60.8420   14.7030   38.7670 N.3   101  PRO101     -0.2116
     75  CA        60.7090   13.4670   39.5200 C.3   101  PRO101      0.1372
     76  C         61.6840   12.4450   38.9940 C.2   101  PRO101      0.2244
     77  O         62.1440   11.6070   39.7850 O.2   101  PRO101     -0.2868
     78  CB        59.2630   13.0750   39.1990 C.3   101  PRO101      0.0268
     79  CG        59.0220   13.6700   37.8270 C.3   101  PRO101      0.0207
     80  CD        59.6810   15.0260   37.9460 C.3   101  PRO101      0.0892
     81  N         46.3470    7.3270   34.4960 N.3   240  PRO240     -0.2102
     82  CA        47.4680    8.0490   35.1320 C.3   240  PRO240      0.1504
     83  C         48.7630    7.2680   35.1350 C.2   240  PRO240      0.2576
     84  O         49.7800    7.9840   35.2950 O.2   240  PRO240     -0.2718
     85  CB        46.9740    8.3170   36.5800 C.3   240  PRO240      0.0282
     86  CG        45.8100    7.4350   36.7740 C.3   240  PRO240      0.0208
     87  CD        45.2340    7.0860   35.4250 C.3   240  PRO240      0.0893
     88  N         48.8470    5.9930   34.9820 N.am  241  PHE241     -0.1963
     89  CA        50.0950    5.2260   34.9630 C.3   241  PHE241      0.1771
     90  C         50.3400    4.4980   33.6130 C.2   241  PHE241      0.2620
     91  O         50.8330    3.3490   33.6190 O.2   241  PHE241     -0.2715
     92  CB        50.1090    4.2040   36.1460 C.3   241  PHE241      0.0574
     93  CG        50.2620    5.2110   37.3310 C.ar  241  PHE241     -0.0200
     94  CD1       51.5200    5.6070   37.6490 C.ar  241  PHE241     -0.0042
     95  CD2       49.1340    5.6470   37.9700 C.ar  241  PHE241     -0.0042
     96  CE1       51.6830    6.5310   38.6790 C.ar  241  PHE241     -0.0003
     97  CE2       49.2350    6.5550   38.9970 C.ar  241  PHE241     -0.0003
     98  CZ        50.5130    6.9220   39.2730 C.ar  241  PHE241     -0.0000
     99  N         50.0140    5.1590   32.4940 N.am  242  SER242     -0.1936
    100  CA        50.0520    4.6430   31.1310 C.3   242  SER242      0.2055
    101  C         51.4810    4.5760   30.6640 C.2   242  SER242      0.2639
    102  O         52.3780    5.2370   31.1540 O.2   242  SER242     -0.2714
    103  CB        49.2260    5.5200   30.1830 C.3   242  SER242      0.2130
    104  OG        47.8470    5.2750   30.4020 O.3   242  SER242     -0.2179
    105  N         51.8850    3.8150   29.6890 N.am  243  ALA243     -0.2030
    106  CA        53.2870    3.7930   29.2940 C.3   243  ALA243      0.1283
    107  C         53.4380    3.1830   27.9380 C.3   243  ALA243      0.2036
    108  O         52.5640    2.2830   27.5820 O.3   243  ALA243     -0.2185
    109  CB        54.1270    2.9840   30.3320 C.3   243  ALA243      0.0262
    110  N         48.9150    2.9810   40.2550 N.3   259  ARG259     -0.1245
    111  CA        50.2500    3.0790   40.8200 C.3   259  ARG259      0.1563
    112  C         50.5250    1.8100   41.6060 C.2   259  ARG259      0.2260
    113  O         49.6240    1.1840   42.2170 O.2   259  ARG259     -0.2867
    114  CB        50.3200    4.2890   41.7180 C.3   259  ARG259      0.0307
    115  CG        51.6590    4.3470   42.4480 C.3   259  ARG259      0.0489
    116  CD        51.7480    5.6690   43.3200 C.3   259  ARG259      0.2205
    117  NE        52.3750    6.6400   42.4960 N.pl3 259  ARG259     -0.0865
    118  CZ        52.1580    7.9890   42.5830 C.cat 259  ARG259      0.5346
    119  NH1       51.2830    8.3710   43.5360 N.pl3 259  ARG259      0.1354
    120  NH2       52.8270    8.8000   41.7220 N.pl3 259  ARG259      0.1354
    121  N         55.8230   -1.2040   35.5310 N.3   358  ILE358     -0.1231
    122  CA        56.6410   -0.3690   34.6420 C.3   358  ILE358      0.1692
    123  C         57.0400    0.7800   35.5320 C.2   358  ILE358      0.2593
    124  O         56.2390    1.2390   36.3840 O.2   358  ILE358     -0.2718
    125  CB        55.8690    0.0110   33.3460 C.3   358  ILE358      0.0266
    126  CG1       55.7600   -1.0850   32.3370 C.3   358  ILE358      0.0019
    127  CG2       56.4770    1.2880   32.7050 C.3   358  ILE358      0.0020
    128  CD1       54.7850   -0.7800   31.1400 C.3   358  ILE358      0.0001
    129  N         58.2590    1.3320   35.4200 N.am  359  GLY359     -0.1942
    130  CA        58.4570    2.5110   36.2840 C.3   359  GLY359      0.2014
    131  C         59.9150    2.9190   36.1370 C.2   359  GLY359      0.2638
    132  O         60.7240    2.5520   35.2670 O.2   359  GLY359     -0.2714
    133  N         60.3090    3.7620   37.0710 N.am  360  TYR360     -0.1973
    134  CA        61.6340    4.2720   37.0730 C.3   360  TYR360      0.1639
    135  C         62.2620    4.2640   38.4620 C.2   360  TYR360      0.2290
    136  O         61.5490    4.3510   39.4330 O.2   360  TYR360     -0.2864
    137  CB        61.5940    5.7190   36.5420 C.3   360  TYR360      0.0560
    138  CG        60.7890    6.7520   37.3220 C.ar  360  TYR360     -0.0198
    139  CD1       61.3660    7.4070   38.4480 C.ar  360  TYR360     -0.0009
    140  CD2       59.4800    7.0910   36.9700 C.ar  360  TYR360     -0.0009
    141  CE1       60.6080    8.3360   39.1350 C.ar  360  TYR360      0.0417
    142  CE2       58.6760    8.0320   37.6410 C.ar  360  TYR360      0.0417
    143  CZ        59.3080    8.6240   38.7220 C.ar  360  TYR360      0.1957
    144  OH        58.6680    9.5680   39.4920 O.3   360  TYR360     -0.2866
    145  N         58.9360    5.4970   41.1160 N.3   368  ASP368     -0.1225
    146  CA        57.5060    5.4970   40.8510 C.3   368  ASP368      0.1805
    147  C         57.3090    4.2920   39.9680 C.2   368  ASP368      0.2598
    148  O         58.0760    3.9630   39.0380 O.2   368  ASP368     -0.2718
    149  CB        56.9310    6.7820   40.1890 C.3   368  ASP368      0.1424
    150  CG        55.4520    6.7240   40.6150 C.2   368  ASP368      0.3668
    151  OD1       54.9660    5.7770   41.3300 O.co2 368  ASP368     -0.2456
    152  OD2       54.7560    7.7310   40.1870 O.co2 368  ASP368     -0.2456
    153  N         56.2380    3.5520   40.2440 N.am  369  THR369     -0.1939
    154  CA        55.9530    2.3360   39.4800 C.3   369  THR369      0.2028
    155  C         54.4460    2.1350   39.3070 C.2   369  THR369      0.2642
    156  O         53.5840    2.5650   40.1150 O.2   369  THR369     -0.2714
    157  CB        56.4750    1.0370   40.1390 C.3   369  THR369      0.1808
    158  OG1       56.0820    1.0080   41.5470 O.3   369  THR369     -0.2208
    159  CG2       57.9560    0.9410   40.1430 C.3   369  THR369      0.0379
    160  N         54.1110    1.4580   38.2150 N.am  370  SER370     -0.1949
    161  CA        52.7240    1.2010   37.9410 C.3   370  SER370      0.1924
    162  C         52.3950   -0.2560   38.1880 C.2   370  SER370      0.2314
    163  O         53.3230   -1.0680   38.3230 O.2   370  SER370     -0.2863
    164  CB        52.3480    1.4080   36.4600 C.3   370  SER370      0.2116
    165  OG        53.0220    0.2770   35.7550 O.3   370  SER370     -0.2180
@<TRIPOS>BOND
     1    17    15   ar
     2    17    18   ar
     3    15    14   ar
     4   108   107    1
     5    18    16   ar
     6   107   106    1
     7    14    16   ar
     8    14    13    1
     9    13    10    1
    10   106   105    1
    11   106   109    1
    12    69    68    2
    13    68    67    1
    14     1     2    1
    15   105   101   am
    16   103   104    1
    17   103   100    1
    18    10     9    1
    19    10    11    1
    20     9     3   am
    21     4     3    2
    22     3     2    1
    23   101   100    1
    24   101   102    2
    25     2     5    1
    26    67    66    1
    27    67    70    1
    28   100    99    1
    29   128   126    1
    30    11    12    2
    31    11    19   am
    32    19    20    1
    33     8     6    1
    34    72    70    1
    35    70    71    1
    36    21    22    2
    37    21    20    1
    38     5     6    1
    39   126   125    1
    40     6     7    1
    41    99    90   am
    42   127   125    1
    43    20    23    1
    44   125   122    1
    45    71    73    1
    46    23    24    1
    47    90    91    2
    48    90    89    1
    49    57    58    2
    50    57    56    1
    51    81    82    1
    52    81    87    1
    53   122   121    1
    54   122   123    1
    55    56    59    1
    56    56    55    1
    57    89    88    1
    58    89    92    1
    59    88    83   am
    60    47    46    2
    61    82    83    1
    62    82    85    1
    63    83    84    2
    64   132   131    2
    65    59    60    1
    66   129   123   am
    67   129   130    1
    68    87    86    1
    69   123   124    2
    70   165   164    1
    71    55    46   am
    72    46    45    1
    73   131   130    1
    74   131   133   am
    75    92    93    1
    76    61    60   ar
    77    61    63   ar
    78   164   161    1
    79   137   134    1
    80   137   138    1
    81    60    62   ar
    82    85    86    1
    83   140   138   ar
    84   140   142   ar
    85    45    44    1
    86    45    48    1
    87   133   134    1
    88   134   135    1
    89    63    65   ar
    90   138   139   ar
    91    93    94   ar
    92    93    95   ar
    93   142   143   ar
    94    94    96   ar
    95    79    80    1
    96    79    78    1
    97    62    64   ar
    98   161   162    1
    99   161   160    1
   100    80    74    1
   101    95    97   ar
   102    49    48    1
   103    49    50    1
   104   162   163    2
   105   160   155   am
   106   139   141   ar
   107   135   136    2
   108    65    64   ar
   109    96    98   ar
   110   143   141   ar
   111   143   144    1
   112    35    34    2
   113    74    75    1
   114    51    50    1
   115    51    52    2
   116    76    75    1
   117    76    77    2
   118    97    98   ar
   119   148   147    2
   120    78    75    1
   121    34    33    1
   122   155   154    1
   123   155   156    2
   124   154   157    1
   125   154   153    1
   126    54    52    1
   127    52    53    1
   128   147   153   am
   129   147   146    1
   130   157   159    1
   131   157   158    1
   132    40    38   ar
   133    40    42   ar
   134   152   150   ar
   135   149   150    1
   136   149   146    1
   137   110   111    1
   138    38    37   ar
   139   150   151   ar
   140    33    32    1
   141    33    36    1
   142   111   112    1
   143   111   114    1
   144   146   145    1
   145    25    26    1
   146    25    31    1
   147    28    27    2
   148    43    42    1
   149    32    27   am
   150    42    41   ar
   151    27    26    1
   152    37    36    1
   153    37    39   ar
   154    26    29    1
   155   112   113    2
   156   114   115    1
   157   120   118    1
   158    31    30    1
   159    41    39   ar
   160   115   116    1
   161   117   118    2
   162   117   116    1
   163   118   119    1
   164    29    30    1
