@<TRIPOS>MOLECULE
tmp/1k0jA01.pdb
 149 145 0 0 0
SMALL
GASTEIGER

@<TRIPOS>ATOM
      1  N         59.6470  102.0910  105.1480 N.3    42  ARG42      -0.1231
      2  CA        59.9560  100.9400  104.3110 C.3    42  ARG42       0.1694
      3  C         58.7820  100.7190  103.3700 C.2    42  ARG42       0.2592
      4  O         57.6590  100.4970  103.8120 O.2    42  ARG42      -0.2718
      5  CB        60.1760   99.6950  105.1760 C.3    42  ARG42       0.0321
      6  CG        61.3710   99.8050  106.1130 C.3    42  ARG42       0.0489
      7  CD        61.7170   98.4720  106.7480 C.3    42  ARG42       0.2205
      8  NE        60.7900   98.1000  107.8100 N.pl3  42  ARG42      -0.0865
      9  CZ        61.0010   98.3160  109.1060 C.cat  42  ARG42       0.5346
     10  NH1       60.0900   97.9410  109.9890 N.pl3  42  ARG42       0.1354
     11  NH2       62.1200   98.8930  109.5220 N.pl3  42  ARG42       0.1354
     12  N         59.0300  100.7890  102.0700 N.am   43  ILE43      -0.1966
     13  CA        57.9430  100.6040  101.1270 C.3    43  ILE43       0.1727
     14  C         57.8400   99.1830  100.6110 C.2    43  ILE43       0.2616
     15  O         58.8400   98.5420  100.2950 O.2    43  ILE43      -0.2715
     16  CB        58.0500  101.5930   99.9300 C.3    43  ILE43       0.0290
     17  CG1       59.4400  101.5360   99.3040 C.3    43  ILE43       0.0022
     18  CG2       57.7320  103.0030  100.3970 C.3    43  ILE43       0.0023
     19  CD1       59.6420  100.3660   98.3810 C.3    43  ILE43       0.0001
     20  N         56.6100   98.6900  100.5550 N.am   44  ARG44      -0.1977
     21  CA        56.3550   97.3560  100.0660 C.3    44  ARG44       0.1597
     22  C         54.8950   97.1070   99.7770 C.2    44  ARG44       0.2287
     23  O         54.0280   97.3430  100.6200 O.2    44  ARG44      -0.2864
     24  CB        56.8740   96.3160  101.0460 C.3    44  ARG44       0.0334
     25  CG        56.7150   96.6540  102.4970 C.3    44  ARG44       0.0492
     26  CD        57.9830   96.2120  103.2150 C.3    44  ARG44       0.2205
     27  NE        59.1450   96.9420  102.7100 N.pl3  44  ARG44      -0.0865
     28  CZ        60.4090   96.6500  103.0020 C.cat  44  ARG44       0.5346
     29  NH1       61.3900   97.3860  102.4960 N.pl3  44  ARG44       0.1354
     30  NH2       60.6980   95.6220  103.7890 N.pl3  44  ARG44       0.1354
     31  N         51.6920   96.7920  102.2160 N.3   102  GLN102     -0.1245
     32  CA        52.0520   96.4600  103.5810 C.3   102  GLN102      0.1566
     33  C         52.2970   97.7700  104.3020 C.2   102  GLN102      0.2260
     34  O         51.9020   97.9510  105.4540 O.2   102  GLN102     -0.2867
     35  CB        53.3220   95.6210  103.6050 C.3   102  GLN102      0.0367
     36  CG        53.7530   95.2380  104.9980 C.3   102  GLN102      0.0905
     37  CD        55.0320   94.4600  104.9920 C.2   102  GLN102      0.2608
     38  OE1       55.1900   93.5250  104.2110 O.2   102  GLN102     -0.2717
     39  NE2       55.9580   94.8300  105.8650 N.am  102  GLN102     -0.0878
     40  N         63.1640   88.6470  110.2890 N.3   161  PHE161     -0.1227
     41  CA        64.3100   87.7850  110.0230 C.3   161  PHE161      0.1736
     42  C         65.6070   88.1910  110.7220 C.2   161  PHE161      0.2595
     43  O         66.3780   87.3330  111.1450 O.2   161  PHE161     -0.2718
     44  CB        64.5380   87.6900  108.5150 C.3   161  PHE161      0.0547
     45  CG        65.3650   86.5110  108.1040 C.ar  161  PHE161     -0.0202
     46  CD1       65.0990   85.2450  108.6250 C.ar  161  PHE161     -0.0042
     47  CD2       66.3910   86.6540  107.1790 C.ar  161  PHE161     -0.0042
     48  CE1       65.8370   84.1410  108.2350 C.ar  161  PHE161     -0.0003
     49  CE2       67.1360   85.5550  106.7810 C.ar  161  PHE161     -0.0003
     50  CZ        66.8560   84.2920  107.3120 C.ar  161  PHE161     -0.0000
     51  N         65.8560   89.4900  110.8510 N.am  162  HIS162     -0.1975
     52  CA        67.0780   89.9320  111.5090 C.3   162  HIS162      0.1656
     53  C         66.8950   90.2680  112.9750 C.2   162  HIS162      0.2291
     54  O         67.8120   90.7720  113.6100 O.2   162  HIS162     -0.2864
     55  CB        67.6730   91.1440  110.7940 C.3   162  HIS162      0.0771
     56  CG        68.4810   90.7890  109.5880 C.ar  162  HIS162      0.0820
     57  ND1       67.9090   90.4600  108.3780 N.ar  162  HIS162     -0.2267
     58  CD2       69.8190   90.6630  109.4190 C.ar  162  HIS162      0.1154
     59  CE1       68.8590   90.1450  107.5150 C.ar  162  HIS162      0.1986
     60  NE2       70.0270   90.2590  108.1220 N.ar  162  HIS162     -0.2212
     61  N         64.5770   85.3220  117.7080 N.3   166  ARG166     -0.1231
     62  CA        64.9570   83.9900  117.2640 C.3   166  ARG166      0.1694
     63  C         66.3730   83.7510  117.7420 C.2   166  ARG166      0.2591
     64  O         66.7180   82.6390  118.1540 O.2   166  ARG166     -0.2718
     65  CB        64.9130   83.8140  115.7430 C.3   166  ARG166      0.0321
     66  CG        65.2000   82.3590  115.3600 C.3   166  ARG166      0.0489
     67  CD        65.1230   82.0640  113.8860 C.3   166  ARG166      0.2205
     68  NE        66.2200   82.6790  113.1470 N.pl3 166  ARG166     -0.0865
     69  CZ        66.1340   83.8400  112.5060 C.cat 166  ARG166      0.5346
     70  NH1       67.1850   84.3240  111.8640 N.pl3 166  ARG166      0.1354
     71  NH2       64.9920   84.5140  112.4940 N.pl3 166  ARG166      0.1354
     72  N         67.1950   84.7950  117.6910 N.am  167  GLN167     -0.1979
     73  CA        68.5800   84.6720  118.1300 C.3   167  GLN167      0.1601
     74  C         68.6960   84.5170  119.6440 C.2   167  GLN167      0.2287
     75  O         69.8020   84.5120  120.1740 O.2   167  GLN167     -0.2864
     76  CB        69.3980   85.8840  117.6810 C.3   167  GLN167      0.0394
     77  CG        69.4480   86.0880  116.1780 C.3   167  GLN167      0.0908
     78  CD        70.0250   84.9030  115.4350 C.2   167  GLN167      0.2608
     79  OE1       70.1250   84.9230  114.2100 O.2   167  GLN167     -0.2717
     80  NE2       70.4060   83.8640  116.1660 N.am  167  GLN167     -0.0878
     81  N         66.3920   75.5970  105.1760 N.3   178  GLU178     -0.1245
     82  CA        66.4760   76.7110  104.2370 C.3   178  GLU178      0.1567
     83  C         67.0310   76.3800  102.8680 C.2   178  GLU178      0.2260
     84  O         67.7530   75.3990  102.6890 O.2   178  GLU178     -0.2867
     85  CB        67.3020   77.8470  104.8350 C.3   178  GLU178      0.0388
     86  CG        68.7590   77.5160  105.0610 C.3   178  GLU178      0.1160
     87  CD        69.5100   78.6780  105.6950 C.2   178  GLU178      0.3649
     88  OE1       69.4680   79.7860  105.1000 O.co2 178  GLU178     -0.2457
     89  OE2       70.1320   78.4790  106.7760 O.co2 178  GLU178     -0.2457
     90  N         58.5300   93.4090   88.2920 N.3   222  TYR222     -0.1241
     91  CA        59.6930   92.6530   88.7210 C.3   222  TYR222      0.1605
     92  C         60.2440   91.7810   87.5980 C.2   222  TYR222      0.2264
     93  O         59.4940   91.2550   86.7770 O.2   222  TYR222     -0.2867
     94  CB        59.3310   91.7080   89.8700 C.3   222  TYR222      0.0534
     95  CG        58.8120   92.3350   91.1420 C.ar  222  TYR222     -0.0201
     96  CD1       59.6790   92.8900   92.0800 C.ar  222  TYR222     -0.0009
     97  CD2       57.4520   92.3050   91.4420 C.ar  222  TYR222     -0.0009
     98  CE1       59.1970   93.3930   93.2910 C.ar  222  TYR222      0.0417
     99  CE2       56.9650   92.8010   92.6430 C.ar  222  TYR222      0.0417
    100  CZ        57.8400   93.3410   93.5590 C.ar  222  TYR222      0.1957
    101  OH        57.3470   93.8310   94.7390 O.3   222  TYR222     -0.2866
    102  N         65.0780   98.2740   93.3210 N.3   264  SER264     -0.1202
    103  CA        65.8830   97.4750   94.2370 C.3   264  SER264      0.2020
    104  C         65.9240   96.0050   93.8270 C.2   264  SER264      0.2619
    105  O         65.1270   95.5570   93.0020 O.2   264  SER264     -0.2717
    106  CB        65.3160   97.5780   95.6540 C.3   264  SER264      0.2103
    107  OG        63.9340   97.2420   95.6820 O.3   264  SER264     -0.2182
    108  N         66.8610   95.2610   94.4080 N.am  265  ILE265     -0.1965
    109  CA        66.9890   93.8350   94.1230 C.3   265  ILE265      0.1727
    110  C         66.8180   93.0260   95.3980 C.2   265  ILE265      0.2616
    111  O         67.6070   93.1450   96.3370 O.2   265  ILE265     -0.2715
    112  CB        68.3540   93.4840   93.5200 C.3   265  ILE265      0.0290
    113  CG1       68.4730   94.0780   92.1160 C.3   265  ILE265      0.0022
    114  CG2       68.5260   91.9760   93.4870 C.3   265  ILE265      0.0023
    115  CD1       69.7760   93.7330   91.4180 C.3   265  ILE265      0.0001
    116  N         65.7780   92.2000   95.4200 N.am  266  ALA266     -0.1964
    117  CA        65.4890   91.3660   96.5760 C.3   266  ALA266      0.1713
    118  C         65.7970   89.8970   96.3050 C.2   266  ALA266      0.2458
    119  O         65.2000   89.2780   95.4260 O.2   266  ALA266     -0.2730
    120  CB        64.0240   91.5310   96.9850 C.3   266  ALA266      0.0333
    121  N         66.7550   89.3270   97.0510 N.am  267  PRO267     -0.2727
    122  CA        67.1420   87.9240   96.9020 C.3   267  PRO267      0.1402
    123  C         66.0260   87.0160   97.4130 C.2   267  PRO267      0.2269
    124  O         65.3350   87.3710   98.3670 O.2   267  PRO267     -0.2865
    125  CB        68.4040   87.8280   97.7560 C.3   267  PRO267      0.0296
    126  CG        68.1710   88.8460   98.8100 C.3   267  PRO267      0.0237
    127  CD        67.6220   90.0020   98.0320 C.3   267  PRO267      0.0939
    128  N         64.5770   83.4050   99.0460 N.3   269  ARG269     -0.1245
    129  CA        65.0270   82.3620   99.9570 C.3   269  ARG269      0.1563
    130  C         63.9050   81.7510  100.7700 C.2   269  ARG269      0.2260
    131  O         62.8670   82.3640  101.0000 O.2   269  ARG269     -0.2867
    132  CB        66.0910   82.8950  100.9170 C.3   269  ARG269      0.0307
    133  CG        65.5360   83.6300  102.1030 C.3   269  ARG269      0.0489
    134  CD        66.6440   83.9330  103.0870 C.3   269  ARG269      0.2205
    135  NE        67.7040   84.7130  102.4580 N.pl3 269  ARG269     -0.0865
    136  CZ        68.9950   84.4330  102.5770 C.cat 269  ARG269      0.5346
    137  NH1       69.3800   83.3910  103.3050 N.pl3 269  ARG269      0.1354
    138  NH2       69.8990   85.1820  101.9530 N.pl3 269  ARG269      0.1354
    139  N         63.1460   79.7980  104.4290 N.3   271  PHE271     -0.1241
    140  CA        63.6950   79.5880  105.7660 C.3   271  PHE271      0.1605
    141  C         62.6140   79.1680  106.7470 C.2   271  PHE271      0.2264
    142  O         61.5890   79.8370  106.8790 O.2   271  PHE271     -0.2867
    143  CB        64.3850   80.8580  106.2680 C.3   271  PHE271      0.0534
    144  CG        64.9200   80.7540  107.6710 C.ar  271  PHE271     -0.0203
    145  CD1       64.0640   80.8280  108.7690 C.ar  271  PHE271     -0.0042
    146  CD2       66.2870   80.6240  107.8980 C.ar  271  PHE271     -0.0042
    147  CE1       64.5620   80.7810  110.0780 C.ar  271  PHE271     -0.0003
    148  CE2       66.7960   80.5750  109.1930 C.ar  271  PHE271     -0.0003
    149  CZ        65.9290   80.6560  110.2870 C.ar  271  PHE271     -0.0000
@<TRIPOS>BOND
     1    93    92    2
     2    92    91    1
     3    90    91    1
     4    91    94    1
     5    94    95    1
     6    95    97   ar
     7    95    96   ar
     8   115   113    1
     9    97    99   ar
    10    96    98   ar
    11   113   112    1
    12    99   100   ar
    13   105   104    2
    14    98   100   ar
    15   102   103    1
    16   114   112    1
    17   112   109    1
    18   100   101    1
    19   104   103    1
    20   104   108   am
    21   109   108    1
    22   109   110    1
    23   103   106    1
    24   110   116   am
    25   110   111    2
    26   116   117    1
    27   119   118    2
    28   106   107    1
    29   118   117    1
    30   118   121   am
    31   117   120    1
    32   122   121    1
    33   122   123    1
    34   122   125    1
    35   121   127    1
    36   123   124    2
    37   125   126    1
    38   127   126    1
    39    19    17    1
    40   128   129    1
    41    17    16    1
    42    22    21    1
    43    22    23    2
    44    16    18    1
    45    16    13    1
    46   129   130    1
    47   129   132    1
    48    21    20    1
    49    21    24    1
    50    15    14    2
    51    20    14   am
    52    14    13    1
    53   130   131    2
    54   132   133    1
    55    24    25    1
    56    13    12    1
    57   138   136    1
    58    12     3   am
    59   133   134    1
    60    31    32    1
    61   135   136    2
    62   135   134    1
    63    29    28    1
    64    25    26    1
    65   136   137    1
    66    84    83    2
    67    27    28    2
    68    27    26    1
    69    83    82    1
    70    28    30    1
    71     3     4    2
    72     3     2    1
    73    32    35    1
    74    32    33    1
    75    35    36    1
    76    38    37    2
    77    82    85    1
    78    82    81    1
    79    33    34    2
    80     2     1    1
    81     2     5    1
    82   139   140    1
    83    85    86    1
    84    37    36    1
    85    37    39   am
    86    86    87    1
    87    88    87   ar
    88     5     6    1
    89    87    89   ar
    90   140   143    1
    91   140   141    1
    92     6     7    1
    93   143   144    1
    94   141   142    2
    95     7     8    1
    96    49    47   ar
    97    49    50   ar
    98    47    45   ar
    99    50    48   ar
   100    59    60   ar
   101    59    57   ar
   102   144   146   ar
   103   144   145   ar
   104     8     9    2
   105   146   148   ar
   106    45    44    1
   107    45    46   ar
   108    60    58   ar
   109    48    46   ar
   110    57    56   ar
   111    44    41    1
   112   145   147   ar
   113     9    11    1
   114     9    10    1
   115   148   149   ar
   116    58    56   ar
   117    56    55    1
   118    41    40    1
   119    41    42    1
   120   147   149   ar
   121    42    51   am
   122    42    43    2
   123    55    52    1
   124    51    52    1
   125    52    53    1
   126    70    69    1
   127    71    69    1
   128    69    68    2
   129    53    54    2
   130    68    67    1
   131    67    66    1
   132    79    78    2
   133    66    65    1
   134    78    80   am
   135    78    77    1
   136    65    62    1
   137    77    76    1
   138    62    61    1
   139    62    63    1
   140    76    73    1
   141    72    63   am
   142    72    73    1
   143    63    64    2
   144    73    74    1
   145    74    75    2
