@<TRIPOS>MOLECULE
tmp/1k0uD02.pdb
 173 163 0 0 0
SMALL
GASTEIGER

@<TRIPOS>ATOM
      1  N        -32.1730  -16.6070   46.0810 N.3    52  LEU52      -0.1231
      2  CA       -31.0400  -15.6960   46.1180 C.3    52  LEU52       0.1693
      3  C        -31.6170  -14.3280   46.4510 C.2    52  LEU52       0.2592
      4  O        -32.7100  -14.0000   45.9980 O.2    52  LEU52      -0.2718
      5  CB       -30.3850  -15.6410   44.7400 C.3    52  LEU52       0.0284
      6  CG       -28.8680  -15.6280   44.6290 C.3    52  LEU52       0.0019
      7  CD1      -28.3810  -16.9940   44.1830 C.3    52  LEU52       0.0001
      8  CD2      -28.4520  -14.5550   43.6370 C.3    52  LEU52       0.0001
      9  N        -30.8870  -13.5320   47.2300 N.am   53  HIS53      -0.1976
     10  CA       -31.3430  -12.1920   47.6000 C.3    53  HIS53       0.1656
     11  C        -31.9470  -11.5350   46.3650 C.2    53  HIS53       0.2291
     12  O        -31.3380  -11.5300   45.2910 O.2    53  HIS53      -0.2864
     13  CB       -30.1670  -11.3630   48.1030 C.3    53  HIS53       0.0771
     14  CG       -29.2320  -12.1200   48.9920 C.ar   53  HIS53       0.0820
     15  ND1      -29.5150  -12.3910   50.3130 N.ar   53  HIS53      -0.2267
     16  CD2      -28.0120  -12.6560   48.7530 C.ar   53  HIS53       0.1154
     17  CE1      -28.5090  -13.0580   50.8490 C.ar   53  HIS53       0.1986
     18  NE2      -27.5840  -13.2330   49.9240 N.ar   53  HIS53      -0.2212
     19  N        -32.2950   -8.6820   44.5710 N.3    55  THR55      -0.1218
     20  CA       -31.7630   -7.3470   44.3390 C.3    55  THR55       0.1862
     21  C        -31.8150   -7.0420   42.8500 C.2    55  THR55       0.2287
     22  O        -32.2410   -7.8740   42.0570 O.2    55  THR55      -0.2866
     23  CB       -30.2940   -7.2440   44.8290 C.3    55  THR55       0.1770
     24  OG1      -29.4920   -8.2120   44.1390 O.3    55  THR55      -0.2211
     25  CG2      -30.2120   -7.5120   46.3310 C.3    55  THR55       0.0375
     26  N        -29.3230   -6.6740   40.8230 N.3    57  GLU57      -0.1231
     27  CA       -28.3590   -7.5060   40.1190 C.3    57  GLU57       0.1699
     28  C        -28.9490   -8.8890   39.8880 C.2    57  GLU57       0.2592
     29  O        -28.7740   -9.4770   38.8250 O.2    57  GLU57      -0.2718
     30  CB       -27.0670   -7.6090   40.9230 C.3    57  GLU57       0.0402
     31  CG       -26.3470   -6.2840   41.0460 C.3    57  GLU57       0.1161
     32  CD       -27.0010   -5.3480   42.0400 C.2    57  GLU57       0.3649
     33  OE1      -26.7600   -4.1290   41.9540 O.co2  57  GLU57      -0.2457
     34  OE2      -27.7510   -5.8330   42.9120 O.co2  57  GLU57      -0.2457
     35  N        -29.6620   -9.3980   40.8880 N.am   58  THR58      -0.1953
     36  CA       -30.2900  -10.7100   40.7830 C.3    58  THR58       0.1897
     37  C        -31.4060  -10.6260   39.7520 C.2    58  THR58       0.2313
     38  O        -31.7530  -11.6150   39.1120 O.2    58  THR58      -0.2863
     39  CB       -30.9010  -11.1500   42.1250 C.3    58  THR58       0.1794
     40  OG1      -29.8830  -11.1770   43.1350 O.3    58  THR58      -0.2208
     41  CG2      -31.5210  -12.5300   41.9860 C.3    58  THR58       0.0378
     42  N        -28.8140  -20.0560   47.1830 N.3   129  ASP129     -0.1239
     43  CA       -27.8020  -19.1790   47.7760 C.3   129  ASP129      0.1674
     44  C        -27.9550  -19.2860   49.2980 C.2   129  ASP129      0.2266
     45  O        -28.7180  -18.5370   49.9070 O.2   129  ASP129     -0.2867
     46  CB       -28.0160  -17.7310   47.3330 C.3   129  ASP129      0.1410
     47  CG       -26.9220  -16.8040   47.8230 C.2   129  ASP129      0.3668
     48  OD1      -26.2760  -17.1490   48.8370 O.co2 129  ASP129     -0.2456
     49  OD2      -26.7090  -15.7380   47.1980 O.co2 129  ASP129     -0.2456
     50  N        -24.4350  -20.7670   45.4270 N.3   154  GLU154     -0.1231
     51  CA       -23.6240  -19.5850   45.1550 C.3   154  GLU154      0.1699
     52  C        -22.7540  -19.0820   46.2960 C.2   154  GLU154      0.2592
     53  O        -21.7980  -18.3500   46.0680 O.2   154  GLU154     -0.2718
     54  CB       -24.5340  -18.4510   44.6820 C.3   154  GLU154      0.0402
     55  CG       -23.9540  -17.6110   43.5650 C.3   154  GLU154      0.1161
     56  CD       -24.1140  -16.1290   43.8310 C.2   154  GLU154      0.3649
     57  OE1      -24.8030  -15.7820   44.8230 O.co2 154  GLU154     -0.2457
     58  OE2      -23.5510  -15.3190   43.0550 O.co2 154  GLU154     -0.2457
     59  N        -23.0790  -19.4630   47.5220 N.am  155  THR155     -0.1953
     60  CA       -22.2980  -18.9880   48.6470 C.3   155  THR155      0.1897
     61  C        -21.4900  -20.0540   49.3810 C.2   155  THR155      0.2313
     62  O        -21.8300  -21.2370   49.3610 O.2   155  THR155     -0.2863
     63  CB       -23.2050  -18.2530   49.6390 C.3   155  THR155      0.1794
     64  OG1      -22.4990  -17.1230   50.1700 O.3   155  THR155     -0.2208
     65  CG2      -23.6460  -19.1830   50.7630 C.3   155  THR155      0.0378
     66  N        -19.7550  -20.8530   44.0420 N.3   179  ASN179     -0.1240
     67  CA       -19.0090  -19.9750   44.9460 C.3   179  ASN179      0.1653
     68  C        -17.4980  -20.1540   44.8390 C.2   179  ASN179      0.2266
     69  O        -16.7360  -19.1910   44.9590 O.2   179  ASN179     -0.2867
     70  CB       -19.4310  -20.2140   46.4040 C.3   179  ASN179      0.1155
     71  CG       -18.4540  -19.6010   47.4100 C.2   179  ASN179      0.2627
     72  OD1      -18.7160  -18.5420   47.9850 O.2   179  ASN179     -0.2716
     73  ND2      -17.3250  -20.2690   47.6260 N.am  179  ASN179     -0.0877
     74  N        -15.4570  -16.1930   40.9060 N.3   184  LYS184     -0.1245
     75  CA       -16.5080  -15.9830   41.8890 C.3   184  LYS184      0.1561
     76  C        -15.9370  -15.5650   43.2390 C.2   184  LYS184      0.2260
     77  O        -16.0810  -14.4170   43.6530 O.2   184  LYS184     -0.2867
     78  CB       -17.3410  -17.2610   42.0570 C.3   184  LYS184      0.0271
     79  CG       -18.7630  -17.0310   42.5590 C.3   184  LYS184      0.0035
     80  CD       -18.7740  -16.2290   43.8460 C.3   184  LYS184      0.0206
     81  CE       -19.8370  -16.7080   44.8060 C.3   184  LYS184      0.1093
     82  NZ       -19.4020  -16.5900   46.2180 N.3   184  LYS184     -0.1314
     83  N        -15.9750  -11.7710   43.9940 N.3   188  ASP188     -0.1225
     84  CA       -17.2320  -11.4550   44.6590 C.3   188  ASP188      0.1805
     85  C        -17.0510  -11.2340   46.1630 C.2   188  ASP188      0.2597
     86  O        -17.2360  -10.1290   46.6720 O.2   188  ASP188     -0.2718
     87  CB       -18.2340  -12.5830   44.3920 C.3   188  ASP188      0.1424
     88  CG       -19.4990  -12.4580   45.2140 C.2   188  ASP188      0.3668
     89  OD1      -19.4170  -12.5150   46.4550 O.co2 188  ASP188     -0.2456
     90  OD2      -20.5840  -12.3180   44.6210 O.co2 188  ASP188     -0.2456
     91  N        -16.6920  -12.2950   46.8710 N.am  189  ASN189     -0.1974
     92  CA       -16.4980  -12.2220   48.3130 C.3   189  ASN189      0.1688
     93  C        -15.4460  -11.1980   48.7080 C.2   189  ASN189      0.2292
     94  O        -15.6120  -10.4750   49.6830 O.2   189  ASN189     -0.2864
     95  CB       -16.0960  -13.5970   48.8570 C.3   189  ASN189      0.1181
     96  CG       -17.0390  -14.6980   48.4160 C.2   189  ASN189      0.2629
     97  OD1      -17.8410  -14.5110   47.5010 O.2   189  ASN189     -0.2716
     98  ND2      -16.9510  -15.8510   49.0660 N.am  189  ASN189     -0.0877
     99  N        -23.0990  -14.9250   55.6850 N.3   299  HIS299     -0.1241
    100  CA       -24.4310  -15.3220   55.2240 C.3   299  HIS299      0.1621
    101  C        -25.4620  -15.4860   56.3450 C.2   299  HIS299      0.2264
    102  O        -26.3000  -14.6110   56.5570 O.2   299  HIS299     -0.2867
    103  CB       -24.3420  -16.6240   54.4230 C.3   299  HIS299      0.0745
    104  CG       -25.6430  -17.0580   53.8260 C.ar  299  HIS299      0.0817
    105  ND1      -26.1790  -16.4710   52.7010 N.ar  299  HIS299     -0.2268
    106  CD2      -26.5170  -18.0210   54.1980 C.ar  299  HIS299      0.1154
    107  CE1      -27.3270  -17.0550   52.4050 C.ar  299  HIS299      0.1986
    108  NE2      -27.5550  -18.0000   53.3000 N.ar  299  HIS299     -0.2212
    109  N        -26.9410  -10.2370   57.5020 N.3   342  LEU342     -0.1245
    110  CA       -26.0160   -9.6610   56.5280 C.3   342  LEU342      0.1561
    111  C        -26.0960   -8.1360   56.5860 C.2   342  LEU342      0.2260
    112  O        -27.1780   -7.5650   56.4580 O.2   342  LEU342     -0.2867
    113  CB       -26.3980  -10.1340   55.1220 C.3   342  LEU342      0.0270
    114  CG       -25.5100  -11.1590   54.4040 C.3   342  LEU342      0.0019
    115  CD1      -24.8460  -12.0710   55.4200 C.3   342  LEU342      0.0001
    116  CD2      -26.3450  -11.9630   53.4270 C.3   342  LEU342      0.0001
    117  N        -24.1810   -5.7290   54.5600 N.3   344  ASN344     -0.1225
    118  CA       -24.1120   -5.0190   53.2880 C.3   344  ASN344      0.1785
    119  C        -25.4410   -5.0600   52.5400 C.2   344  ASN344      0.2597
    120  O        -25.8200   -4.0910   51.8720 O.2   344  ASN344     -0.2718
    121  CB       -22.9940   -5.5920   52.4090 C.3   344  ASN344      0.1169
    122  CG       -23.1340   -7.0810   52.1710 C.2   344  ASN344      0.2627
    123  OD1      -23.6460   -7.8170   53.0120 O.2   344  ASN344     -0.2716
    124  ND2      -22.6740   -7.5320   51.0160 N.am  344  ASN344     -0.0877
    125  N        -26.1480   -6.1850   52.6610 N.am  345  LEU345     -0.1980
    126  CA       -27.4390   -6.3700   51.9970 C.3   345  LEU345      0.1596
    127  C        -28.6030   -5.9310   52.8750 C.2   345  LEU345      0.2287
    128  O        -29.6040   -5.4310   52.3750 O.2   345  LEU345     -0.2864
    129  CB       -27.6270   -7.8320   51.6010 C.3   345  LEU345      0.0297
    130  CG       -26.8660   -8.2970   50.3620 C.3   345  LEU345      0.0022
    131  CD1      -26.4510   -9.7400   50.5270 C.3   345  LEU345      0.0001
    132  CD2      -27.7470   -8.1430   49.1490 C.3   345  LEU345      0.0001
    133  N        -27.1150   -1.6690   49.6850 N.3   349  MET349     -0.1230
    134  CA       -27.5880   -2.3060   48.4590 C.3   349  MET349      0.1702
    135  C        -26.8300   -3.5780   48.0700 C.2   349  MET349      0.2593
    136  O        -27.1300   -4.1940   47.0400 O.2   349  MET349     -0.2718
    137  CB       -27.5360   -1.3020   47.3060 C.3   349  MET349      0.0401
    138  CG       -28.4630   -0.1030   47.4910 C.3   349  MET349      0.0596
    139  SD       -30.2170   -0.5250   47.3260 S.3   349  MET349     -0.1393
    140  CE       -30.5140   -0.0430   45.6260 C.3   349  MET349      0.0692
    141  N        -25.8650   -3.9740   48.9020 N.am  350  GLY350     -0.1942
    142  CA       -25.0820   -5.1720   48.6310 C.3   350  GLY350      0.2014
    143  C        -23.9490   -4.9020   47.6600 C.2   350  GLY350      0.2638
    144  O        -23.6410   -3.7460   47.3780 O.2   350  GLY350     -0.2714
    145  N        -23.3290   -5.9590   47.1420 N.am  351  HIS351     -0.1973
    146  CA       -22.2340   -5.8030   46.1860 C.3   351  HIS351      0.1656
    147  C        -22.7190   -5.0500   44.9420 C.2   351  HIS351      0.2291
    148  O        -23.8970   -5.1300   44.5690 O.2   351  HIS351     -0.2864
    149  CB       -21.6930   -7.1750   45.7370 C.3   351  HIS351      0.0771
    150  CG       -21.0210   -7.9580   46.8240 C.ar  351  HIS351      0.0820
    151  ND1      -20.6110   -9.2620   46.6540 N.ar  351  HIS351     -0.2267
    152  CD2      -20.6960   -7.6250   48.0960 C.ar  351  HIS351      0.1154
    153  CE1      -20.0640   -9.7000   47.7740 C.ar  351  HIS351      0.1986
    154  NE2      -20.1020   -8.7260   48.6650 N.ar  351  HIS351     -0.2212
    155  N        -21.0460   -8.5620   40.5630 N.3   356  MET356     -0.1245
    156  CA       -22.1300   -9.5410   40.6100 C.3   356  MET356      0.1570
    157  C        -22.3220  -10.2190   39.2480 C.2   356  MET356      0.2261
    158  O        -22.9150  -11.2920   39.1550 O.2   356  MET356     -0.2867
    159  CB       -23.4300   -8.8570   41.0380 C.3   356  MET356      0.0387
    160  CG       -23.5570   -8.6140   42.5360 C.3   356  MET356      0.0595
    161  SD       -22.8450   -9.9120   43.5630 S.3   356  MET356     -0.1393
    162  CE       -23.8370  -11.3110   43.1520 C.3   356  MET356      0.0692
    163  N        -22.8190  -14.2030   38.8430 N.3   360  PHE360     -0.1241
    164  CA       -24.0220  -14.5390   38.1020 C.3   360  PHE360      0.1605
    165  C        -23.7460  -15.1750   36.7410 C.2   360  PHE360      0.2264
    166  O        -24.5340  -15.9960   36.2700 O.2   360  PHE360     -0.2867
    167  CB       -24.8950  -13.2940   37.9510 C.3   360  PHE360      0.0534
    168  CG       -25.5640  -12.8680   39.2310 C.ar  360  PHE360     -0.0203
    169  CD1      -25.5000  -13.6740   40.3660 C.ar  360  PHE360     -0.0042
    170  CD2      -26.2640  -11.6630   39.3010 C.ar  360  PHE360     -0.0042
    171  CE1      -26.1190  -13.2920   41.5480 C.ar  360  PHE360     -0.0003
    172  CE2      -26.8900  -11.2700   40.4810 C.ar  360  PHE360     -0.0003
    173  CZ       -26.8180  -12.0880   41.6080 C.ar  360  PHE360     -0.0000
@<TRIPOS>BOND
     1   166   165    2
     2   165   164    1
     3   167   164    1
     4   167   168    1
     5   164   163    1
     6    29    28    2
     7    38    37    2
     8   158   157    2
     9   168   170   ar
    10   168   169   ar
    11   157   156    1
    12   170   172   ar
    13    37    36    1
    14    28    27    1
    15    28    35   am
    16    27    26    1
    17    27    30    1
    18   169   171   ar
    19   172   173   ar
    20   155   156    1
    21   156   159    1
    22    36    35    1
    23    36    39    1
    24    74    75    1
    25    30    31    1
    26   159   160    1
    27    31    32    1
    28   171   173   ar
    29    75    78    1
    30    75    76    1
    31    33    32   ar
    32    41    39    1
    33    32    34   ar
    34    22    21    2
    35    78    79    1
    36    39    40    1
    37   160   161    1
    38    79    80    1
    39    21    20    1
    40    58    56   ar
    41   162   161    1
    42    76    77    2
    43    55    56    1
    44    55    54    1
    45     8     6    1
    46    56    57   ar
    47    80    81    1
    48    83    84    1
    49    66    67    1
    50    24    23    1
    51     7     6    1
    52    20    19    1
    53    20    23    1
    54    87    84    1
    55    87    88    1
    56   148   147    2
    57    90    88   ar
    58     6     5    1
    59    84    85    1
    60    54    51    1
    61     5     2    1
    62    81    82    1
    63    23    25    1
    64    68    67    1
    65    68    69    2
    66   147   146    1
    67    67    70    1
    68    51    50    1
    69    51    52    1
    70    88    89   ar
    71    12    11    2
    72   140   139    1
    73   149   146    1
    74   149   150    1
    75     4     3    2
    76    53    52    2
    77     1     2    1
    78     2     3    1
    79    85    86    2
    80    85    91   am
    81   146   145    1
    82    52    59   am
    83    11    10    1
    84    70    71    1
    85     3     9   am
    86   151   150   ar
    87   151   153   ar
    88   150   152   ar
    89    91    92    1
    90   136   135    2
    91   145   143   am
    92    42    43    1
    93    49    47   ar
    94     9    10    1
    95   137   138    1
    96   137   134    1
    97   139   138    1
    98    46    43    1
    99    46    47    1
   100   144   143    2
   101    71    73   am
   102    71    72    2
   103    97    96    2
   104    59    60    1
   105    10    13    1
   106   143   142    1
   107   153   154   ar
   108    43    44    1
   109    47    48   ar
   110   135   134    1
   111   135   141   am
   112   152   154   ar
   113    13    14    1
   114    92    93    1
   115    92    95    1
   116    96    95    1
   117    96    98   am
   118   134   133    1
   119   142   141    1
   120    60    61    1
   121    60    63    1
   122    93    94    2
   123    16    14   ar
   124    16    18   ar
   125    14    15   ar
   126   132   130    1
   127    44    45    2
   128    62    61    2
   129    63    64    1
   130    63    65    1
   131    18    17   ar
   132    15    17   ar
   133   130   131    1
   134   130   129    1
   135   124   122   am
   136   129   126    1
   137   120   119    2
   138   126   125    1
   139   126   127    1
   140   122   121    1
   141   122   123    2
   142   128   127    2
   143   107   105   ar
   144   107   108   ar
   145   121   118    1
   146   119   125   am
   147   119   118    1
   148   105   104   ar
   149   118   117    1
   150   108   106   ar
   151   116   114    1
   152   104   106   ar
   153   104   103    1
   154   114   113    1
   155   114   115    1
   156   103   100    1
   157   113   110    1
   158   100    99    1
   159   100   101    1
   160   101   102    2
   161   112   111    2
   162   110   111    1
   163   110   109    1
