@<TRIPOS>MOLECULE
tmp/1k0yA01.pdb
 89 83 0 0 0
SMALL
GASTEIGER

@<TRIPOS>ATOM
      1  N         19.1020    4.5260   31.7230 N.3    36  PHE36      -0.1241
      2  CA        17.7050    4.9380   31.6480 C.3    36  PHE36       0.1605
      3  C         17.2160    4.7330   30.2100 C.2    36  PHE36       0.2264
      4  O         17.0290    5.6920   29.4580 O.2    36  PHE36      -0.2867
      5  CB        17.5820    6.4210   32.0970 C.3    36  PHE36       0.0534
      6  CG        18.2240    6.6990   33.4550 C.ar   36  PHE36      -0.0203
      7  CD1       19.4910    7.2940   33.5430 C.ar   36  PHE36      -0.0042
      8  CD2       17.6010    6.2960   34.6410 C.ar   36  PHE36      -0.0042
      9  CE1       20.1240    7.4720   34.7860 C.ar   36  PHE36      -0.0003
     10  CE2       18.2310    6.4730   35.8770 C.ar   36  PHE36      -0.0003
     11  CZ        19.4890    7.0580   35.9410 C.ar   36  PHE36      -0.0000
     12  N         14.3240    4.3570   28.8560 N.3    38  THR38      -0.1218
     13  CA        13.1720    5.1120   28.3830 C.3    38  THR38       0.1862
     14  C         13.5600    6.3910   27.6250 C.2    38  THR38       0.2287
     15  O         12.7990    6.8630   26.7950 O.2    38  THR38      -0.2866
     16  CB        12.2190    5.4590   29.5310 C.3    38  THR38       0.1770
     17  OG1       12.9030    6.2710   30.4920 O.3    38  THR38      -0.2211
     18  CG2       11.7040    4.1650   30.1990 C.3    38  THR38       0.0375
     19  N         11.1110   15.3360   33.1840 N.3    96  VAL96      -0.1231
     20  CA        11.8390   14.4070   34.0370 C.3    96  VAL96       0.1692
     21  C         13.1890   13.9510   33.4660 C.2    96  VAL96       0.2592
     22  O         14.1570   13.7310   34.1980 O.2    96  VAL96      -0.2718
     23  CB        10.9800   13.1810   34.4490 C.3    96  VAL96       0.0266
     24  CG1       10.8420   12.1880   33.3190 C.3    96  VAL96       0.0020
     25  CG2       11.6240   12.5060   35.6430 C.3    96  VAL96       0.0020
     26  N         13.2660   13.8780   32.1080 N.am   97  ASN97      -0.1974
     27  CA        14.4640   13.4230   31.4320 C.3    97  ASN97       0.1688
     28  C         15.6770   14.3030   31.6250 C.2    97  ASN97       0.2292
     29  O         16.7920   13.8370   31.5080 O.2    97  ASN97      -0.2864
     30  CB        14.1690   13.2190   29.9580 C.3    97  ASN97       0.1181
     31  CG        13.0980   12.1730   29.7400 C.2    97  ASN97       0.2629
     32  OD1       13.3770   10.9760   29.7840 O.2    97  ASN97      -0.2716
     33  ND2       11.8480   12.6180   29.5840 N.am   97  ASN97      -0.0877
     34  N         16.6480   15.5450   34.4660 N.3    99  LYS99      -0.1231
     35  CA        17.2720   15.0770   35.7000 C.3    99  LYS99       0.1693
     36  C         18.1540   13.8800   35.4090 C.2    99  LYS99       0.2591
     37  O         19.2520   13.7530   35.9720 O.2    99  LYS99      -0.2718
     38  CB        16.2120   14.7150   36.7430 C.3    99  LYS99       0.0285
     39  CG        15.6510   15.9240   37.4440 C.3    99  LYS99       0.0035
     40  CD        14.5660   15.5520   38.4300 C.3    99  LYS99       0.0206
     41  CE        13.9670   16.8060   39.0970 C.3    99  LYS99       0.1093
     42  NZ        15.0100   17.6490   39.7230 N.3    99  LYS99      -0.1314
     43  N         17.6820   13.0070   34.4620 N.am  100  LEU100     -0.1980
     44  CA        18.4220   11.8070   34.0810 C.3   100  LEU100      0.1596
     45  C         19.7060   12.1360   33.3390 C.2   100  LEU100      0.2287
     46  O         20.7380   11.5830   33.6440 O.2   100  LEU100     -0.2864
     47  CB        17.5350   10.8860   33.2440 C.3   100  LEU100      0.0297
     48  CG        16.1950   10.5100   33.8760 C.3   100  LEU100      0.0022
     49  CD1       15.4160    9.5790   32.9660 C.3   100  LEU100      0.0001
     50  CD2       16.4400    9.8440   35.2330 C.3   100  LEU100      0.0001
     51  N         22.2710   13.7460   35.8240 N.3   103  HIS103     -0.1241
     52  CA        22.9320   12.7560   36.6610 C.3   103  HIS103      0.1621
     53  C         24.0510   12.0730   35.8740 C.2   103  HIS103      0.2264
     54  O         25.1320   11.8420   36.3950 O.2   103  HIS103     -0.2867
     55  CB        21.9160   11.7170   37.1480 C.3   103  HIS103      0.0745
     56  CG        22.5350   10.5440   37.8410 C.ar  103  HIS103      0.0817
     57  ND1       23.2120   10.6540   39.0340 N.ar  103  HIS103     -0.2268
     58  CD2       22.6150    9.2380   37.4870 C.ar  103  HIS103      0.1154
     59  CE1       23.6870    9.4730   39.3830 C.ar  103  HIS103      0.1986
     60  NE2       23.3350    8.6000   38.4570 N.ar  103  HIS103     -0.2212
     61  N         26.0220   20.1580   40.3740 N.3   126  ASP126     -0.1225
     62  CA        24.6600   19.6750   40.4220 C.3   126  ASP126      0.1805
     63  C         23.6680   20.8370   40.3520 C.2   126  ASP126      0.2597
     64  O         22.6650   20.7660   39.6540 O.2   126  ASP126     -0.2718
     65  CB        24.4320   18.8270   41.6650 C.3   126  ASP126      0.1424
     66  CG        23.1720   17.9820   41.5610 C.2   126  ASP126      0.3668
     67  OD1       22.9430   17.3800   40.4930 O.co2 126  ASP126     -0.2456
     68  OD2       22.3970   17.9340   42.5230 O.co2 126  ASP126     -0.2456
     69  N         23.9620   21.9540   41.0900 N.am  127  LYS127     -0.1979
     70  CA        23.1020   23.1240   41.0620 C.3   127  LYS127      0.1596
     71  C         23.1130   23.7320   39.6640 C.2   127  LYS127      0.2287
     72  O         22.0820   24.1340   39.1440 O.2   127  LYS127     -0.2864
     73  CB        23.5890   24.1860   42.0560 C.3   127  LYS127      0.0298
     74  CG        23.3190   23.8680   43.5050 C.3   127  LYS127      0.0038
     75  CD        23.8430   24.9740   44.4360 C.3   127  LYS127      0.0206
     76  CE        23.1080   26.3000   44.2350 C.3   127  LYS127      0.1093
     77  NZ        23.4720   27.3470   45.2810 N.3   127  LYS127     -0.1314
     78  N         20.9500   21.7580   37.3710 N.3   130  ALA130     -0.1245
     79  CA        19.5370   21.9360   37.6970 C.3   130  ALA130      0.1562
     80  C         19.0690   23.2940   37.1560 C.2   130  ALA130      0.2260
     81  O         17.9570   23.4050   36.6670 O.2   130  ALA130     -0.2867
     82  CB        19.2980   21.8330   39.2260 C.3   130  ALA130      0.0290
     83  N         16.2510   24.0340   34.3190 N.3   134  THR134     -0.1218
     84  CA        15.1450   24.9260   34.6070 C.3   134  THR134      0.1862
     85  C         14.9510   25.9140   33.4670 C.2   134  THR134      0.2287
     86  O         13.8250   26.1120   33.0000 O.2   134  THR134     -0.2866
     87  CB        15.3630   25.6650   35.9280 C.3   134  THR134      0.1770
     88  OG1       15.2730   24.7180   36.9930 O.3   134  THR134     -0.2211
     89  CG2       14.3020   26.7380   36.1390 C.3   134  THR134      0.0375
@<TRIPOS>BOND
     1    15    14    2
     2    14    13    1
     3    13    12    1
     4    13    16    1
     5     4     3    2
     6    16    18    1
     7    16    17    1
     8    33    31   am
     9    31    32    2
    10    31    30    1
    11    30    27    1
    12     3     2    1
    13    27    28    1
    14    27    26    1
    15    29    28    2
    16     2     1    1
    17     2     5    1
    18     5     6    1
    19    26    21   am
    20    49    48    1
    21    86    85    2
    22    19    20    1
    23    47    48    1
    24    47    44    1
    25    24    23    1
    26    45    46    2
    27    45    44    1
    28     6     7   ar
    29     6     8   ar
    30    21    20    1
    31    21    22    2
    32    85    84    1
    33     7     9   ar
    34    48    50    1
    35    20    23    1
    36    44    43    1
    37    83    84    1
    38    23    25    1
    39    43    36   am
    40    34    35    1
    41    84    87    1
    42     8    10   ar
    43     9    11   ar
    44    36    35    1
    45    36    37    2
    46    35    38    1
    47    51    52    1
    48    53    54    2
    49    53    52    1
    50    10    11   ar
    51    87    89    1
    52    87    88    1
    53    52    55    1
    54    81    80    2
    55    38    39    1
    56    55    56    1
    57    80    79    1
    58    78    79    1
    59    39    40    1
    60    58    56   ar
    61    58    60   ar
    62    79    82    1
    63    56    57   ar
    64    40    41    1
    65    60    59   ar
    66    57    59   ar
    67    41    42    1
    68    72    71    2
    69    64    63    2
    70    71    70    1
    71    63    62    1
    72    63    69   am
    73    61    62    1
    74    62    65    1
    75    67    66   ar
    76    70    69    1
    77    70    73    1
    78    66    65    1
    79    66    68   ar
    80    73    74    1
    81    74    75    1
    82    76    75    1
    83    76    77    1
