@<TRIPOS>MOLECULE
tmp/1k12A00.pdb
 99 96 0 0 0
SMALL
GASTEIGER

@<TRIPOS>ATOM
      1  N         -0.1170   27.9020    5.6910 N.3    23  LEU23      -0.1245
      2  CA        -0.5780   27.8670    4.3000 C.3    23  LEU23       0.1561
      3  C          0.1550   28.9740    3.5490 C.2    23  LEU23       0.2260
      4  O          0.2140   30.1180    4.0260 O.2    23  LEU23      -0.2867
      5  CB        -2.0850   28.1300    4.2050 C.3    23  LEU23       0.0270
      6  CG        -2.6310   28.3090    2.7790 C.3    23  LEU23       0.0019
      7  CD1       -2.5450   27.0010    2.0140 C.3    23  LEU23       0.0001
      8  CD2       -4.0660   28.7960    2.8370 C.3    23  LEU23       0.0001
      9  N         -3.7860   32.9130   -0.0610 N.3    27  HIS27      -0.1241
     10  CA        -4.5240   33.1690    1.1660 C.3    27  HIS27       0.1621
     11  C         -3.6690   33.0610    2.3920 C.2    27  HIS27       0.2264
     12  O         -4.1990   32.9960    3.5000 O.2    27  HIS27      -0.2867
     13  CB        -5.6950   32.1890    1.2870 C.3    27  HIS27       0.0745
     14  CG        -6.5740   32.1590    0.0800 C.ar   27  HIS27       0.0817
     15  ND1       -7.2190   33.2820   -0.3980 N.ar   27  HIS27      -0.2268
     16  CD2       -6.8680   31.1580   -0.7830 C.ar   27  HIS27       0.1154
     17  CE1       -7.8690   32.9750   -1.5070 C.ar   27  HIS27       0.1986
     18  NE2       -7.6710   31.6930   -1.7630 N.ar   27  HIS27      -0.2212
     19  N        -13.3540   31.4710    6.8970 N.3    45  PHE45      -0.1227
     20  CA       -11.9020   31.6060    6.7730 C.3    45  PHE45       0.1736
     21  C        -11.4860   32.9530    6.1540 C.2    45  PHE45       0.2595
     22  O        -10.4740   33.5460    6.5280 O.2    45  PHE45      -0.2718
     23  CB       -11.3500   30.4530    5.9230 C.3    45  PHE45       0.0547
     24  CG        -9.8830   30.5900    5.5800 C.ar   45  PHE45      -0.0202
     25  CD1       -8.9010   30.3330    6.5300 C.ar   45  PHE45      -0.0042
     26  CD2       -9.4860   31.0190    4.3040 C.ar   45  PHE45      -0.0042
     27  CE1       -7.5310   30.5040    6.2190 C.ar   45  PHE45      -0.0003
     28  CE2       -8.1180   31.1920    3.9910 C.ar   45  PHE45      -0.0003
     29  CZ        -7.1450   30.9330    4.9560 C.ar   45  PHE45      -0.0000
     30  N        -12.2790   33.4400    5.2080 N.am   46  TYR46      -0.1976
     31  CA       -11.9460   34.6890    4.5460 C.3    46  TYR46       0.1639
     32  C        -12.0320   35.9660    5.3690 C.2    46  TYR46       0.2290
     33  O        -11.6350   37.0320    4.8860 O.2    46  TYR46      -0.2864
     34  CB       -12.7320   34.8110    3.2430 C.3    46  TYR46       0.0560
     35  CG       -12.2930   33.7340    2.2810 C.ar   46  TYR46      -0.0198
     36  CD1      -13.0000   32.5380    2.1770 C.ar   46  TYR46      -0.0009
     37  CD2      -11.1240   33.8800    1.5290 C.ar   46  TYR46      -0.0009
     38  CE1      -12.5590   31.5120    1.3470 C.ar   46  TYR46       0.0417
     39  CE2      -10.6730   32.8740    0.7040 C.ar   46  TYR46       0.0417
     40  CZ       -11.3960   31.6880    0.6100 C.ar   46  TYR46       0.1957
     41  OH       -10.9820   30.6930   -0.2560 O.3    46  TYR46      -0.2866
     42  N         -4.5380   28.0260    9.2070 N.3    52  HIS52      -0.1241
     43  CA        -4.5540   27.1320    8.0570 C.3    52  HIS52       0.1621
     44  C         -3.1260   26.6080    7.8620 C.2    52  HIS52       0.2264
     45  O         -2.1780   27.3930    7.7110 O.2    52  HIS52      -0.2867
     46  CB        -5.0570   27.8760    6.8060 C.3    52  HIS52       0.0745
     47  CG        -5.5250   26.9810    5.6920 C.ar   52  HIS52       0.0817
     48  ND1       -4.7590   25.9550    5.1750 N.ar   52  HIS52      -0.2268
     49  CD2       -6.6630   27.0020    4.9530 C.ar   52  HIS52       0.1154
     50  CE1       -5.4000   25.3870    4.1680 C.ar   52  HIS52       0.1986
     51  NE2       -6.5590   26.0040    4.0130 N.ar   52  HIS52      -0.2212
     52  N        -13.8200   25.0710   10.5180 N.3    79  ARG79      -0.1245
     53  CA       -14.0310   26.0080    9.4110 C.3    79  ARG79       0.1563
     54  C        -15.4700   25.9290    8.8860 C.2    79  ARG79       0.2260
     55  O        -16.0290   24.8390    8.7430 O.2    79  ARG79      -0.2867
     56  CB       -13.0560   25.7250    8.2690 C.3    79  ARG79       0.0307
     57  CG       -13.1670   26.6940    7.1090 C.3    79  ARG79       0.0489
     58  CD       -12.1470   26.3470    6.0520 C.3    79  ARG79       0.2205
     59  NE       -12.2010   27.2470    4.9040 N.pl3  79  ARG79      -0.0865
     60  CZ       -11.3620   27.2020    3.8670 C.cat  79  ARG79       0.5346
     61  NH1      -10.3870   26.2920    3.8170 N.pl3  79  ARG79       0.1354
     62  NH2      -11.4940   28.0790    2.8820 N.pl3  79  ARG79       0.1354
     63  N        -16.8170   28.1900    5.9210 N.3    81  ASP81      -0.1225
     64  CA       -17.1050   28.5160    4.5180 C.3    81  ASP81       0.1805
     65  C        -17.0290   27.2990    3.5960 C.2    81  ASP81       0.2598
     66  O        -17.6530   27.2730    2.5340 O.2    81  ASP81      -0.2718
     67  CB       -16.1910   29.6460    4.0060 C.3    81  ASP81       0.1424
     68  CG       -14.7290   29.3000    4.0900 C.2    81  ASP81       0.3668
     69  OD1      -14.0680   29.2620    3.0280 O.co2  81  ASP81      -0.2456
     70  OD2      -14.2380   29.0720    5.2180 O.co2  81  ASP81      -0.2456
     71  N        -16.2630   26.2950    4.0150 N.am   82  CYS82      -0.1956
     72  CA       -16.1060   25.0460    3.2700 C.3    82  CYS82       0.1843
     73  C        -15.2770   24.0970    4.1010 C.2    82  CYS82       0.2625
     74  O        -14.9150   24.3740    5.2530 O.2    82  CYS82      -0.2714
     75  CB       -15.3110   25.2320    1.9570 C.3    82  CYS82       0.0997
     76  SG       -13.4760   25.2970    2.1580 S.3    82  CYS82      -0.0797
     77  N        -15.0360   22.9460    3.4820 N.am   83  CYS83      -0.1968
     78  CA       -14.1130   21.9620    3.9760 C.3    83  CYS83       0.1712
     79  C        -14.2130   21.5090    5.4360 C.2    83  CYS83       0.2296
     80  O        -13.1890   21.2460    6.0720 O.2    83  CYS83      -0.2864
     81  CB       -12.7360   22.5620    3.6400 C.3    83  CYS83       0.0983
     82  SG       -12.7360   23.3900    1.9820 S.3    83  CYS83      -0.0798
     83  N        -12.2880   18.0610    6.7360 N.3    86  ARG86      -0.1245
     84  CA       -10.8440   17.8840    6.8810 C.3    86  ARG86       0.1563
     85  C        -10.3310   17.6270    8.3000 C.2    86  ARG86       0.2260
     86  O         -9.3020   16.9720    8.4790 O.2    86  ARG86      -0.2867
     87  CB       -10.1140   19.0950    6.2840 C.3    86  ARG86       0.0307
     88  CG       -10.3790   19.3090    4.8050 C.3    86  ARG86       0.0489
     89  CD        -9.5920   20.4810    4.2800 C.3    86  ARG86       0.2205
     90  NE        -9.6810   20.6150    2.8250 N.pl3  86  ARG86      -0.0865
     91  CZ        -9.3680   21.7240    2.1560 C.cat  86  ARG86       0.5346
     92  NH1       -8.9470   22.8030    2.8060 N.pl3  86  ARG86       0.1354
     93  NH2       -9.4780   21.7600    0.8350 N.pl3  86  ARG86       0.1354
     94  N         -5.6570   19.3940    5.2030 N.3   142  SER142     -0.1217
     95  CA        -5.2270   20.6800    5.7300 C.3   142  SER142      0.1889
     96  C         -5.9050   20.8720    7.0750 C.2   142  SER142      0.2288
     97  O         -7.0880   20.5260    7.2470 O.2   142  SER142     -0.2866
     98  CB        -5.6530   21.8100    4.8060 C.3   142  SER142      0.2089
     99  OG        -5.0110   21.6900    3.5600 O.3   142  SER142     -0.2183
@<TRIPOS>BOND
     1    18    17   ar
     2    18    16   ar
     3    17    15   ar
     4    16    14   ar
     5    15    14   ar
     6    41    40    1
     7     9    10    1
     8    14    13    1
     9    40    39   ar
    10    40    38   ar
    11    39    37   ar
    12    93    91    1
    13    10    13    1
    14    10    11    1
    15    38    36   ar
    16    37    35   ar
    17    75    76    1
    18    75    72    1
    19    82    76    1
    20    82    81    1
    21     7     6    1
    22    91    92    1
    23    91    90    2
    24    36    35   ar
    25    35    34    1
    26    11    12    2
    27    66    65    2
    28     6     8    1
    29     6     5    1
    30    90    89    1
    31    62    60    1
    32    69    68   ar
    33    34    31    1
    34    72    71    1
    35    72    73    1
    36    77    78    1
    37    77    73   am
    38     3     4    2
    39     3     2    1
    40    99    98    1
    41    65    71   am
    42    65    64    1
    43    81    78    1
    44    61    60    1
    45    60    59    2
    46    78    79    1
    47    28    26   ar
    48    28    29   ar
    49    67    68    1
    50    67    64    1
    51    51    50   ar
    52    51    49   ar
    53    68    70   ar
    54    73    74    2
    55    50    48   ar
    56     5     2    1
    57    89    88    1
    58     2     1    1
    59    26    24   ar
    60    64    63    1
    61    31    30    1
    62    31    32    1
    63    88    87    1
    64    98    95    1
    65    33    32    2
    66    59    58    1
    67    49    47   ar
    68    29    27   ar
    69    48    47   ar
    70    94    95    1
    71    30    21   am
    72    79    80    2
    73    24    23    1
    74    24    25   ar
    75    47    46    1
    76    95    96    1
    77    23    20    1
    78    58    57    1
    79    21    22    2
    80    21    20    1
    81    27    25   ar
    82    87    84    1
    83    83    84    1
    84    20    19    1
    85    46    43    1
    86    84    85    1
    87    96    97    2
    88    57    56    1
    89    45    44    2
    90    44    43    1
    91    43    42    1
    92    56    53    1
    93    85    86    2
    94    55    54    2
    95    54    53    1
    96    53    52    1
