@<TRIPOS>MOLECULE
tmp/1k1iA00.pdb
 140 137 0 0 0
SMALL
GASTEIGER

@<TRIPOS>ATOM
      1  N          7.3460   17.0880   24.9630 N.3    40  HIS40      -0.1241
      2  CA         6.4110   18.2180   24.9680 C.3    40  HIS40       0.1621
      3  C          5.3070   18.0500   26.0160 C.2    40  HIS40       0.2264
      4  O          4.4680   18.9260   26.1950 O.2    40  HIS40      -0.2867
      5  CB         5.8470   18.5390   23.5630 C.3    40  HIS40       0.0745
      6  CG         4.7440   17.6340   23.0960 C.ar   40  HIS40       0.0817
      7  ND1        4.9360   16.6580   22.1470 N.ar   40  HIS40      -0.2268
      8  CD2        3.4230   17.6110   23.3940 C.ar   40  HIS40       0.1154
      9  CE1        3.7850   16.0660   21.8790 C.ar   40  HIS40       0.1986
     10  NE2        2.8530   16.6250   22.6250 N.ar   40  HIS40      -0.2212
     11  N         10.8420   23.6870   19.1270 N.3    79  ASN79      -0.1240
     12  CA        10.3500   24.3900   17.9440 C.3    79  ASN79       0.1653
     13  C         10.0810   23.4500   16.7880 C.2    79  ASN79       0.2266
     14  O          9.1670   23.6730   16.0000 O.2    79  ASN79      -0.2867
     15  CB        11.3410   25.4640   17.4920 C.3    79  ASN79       0.1155
     16  CG        11.3970   26.6420   18.4330 C.2    79  ASN79       0.2627
     17  OD1       12.4590   27.2230   18.6370 O.2    79  ASN79      -0.2716
     18  ND2       10.2480   27.0210   18.9940 N.am   79  ASN79      -0.0877
     19  N         10.1430   19.9290   17.4130 N.3    81  LEU81      -0.1245
     20  CA         9.6800   18.7080   18.0660 C.3    81  LEU81       0.1561
     21  C         10.6430   17.5490   17.8190 C.2    81  LEU81       0.2260
     22  O         10.3040   16.3870   18.0140 O.2    81  LEU81      -0.2867
     23  CB         8.2430   18.3470   17.6620 C.3    81  LEU81       0.0270
     24  CG         7.1620   19.2960   18.1920 C.3    81  LEU81       0.0019
     25  CD1        5.8050   18.7950   17.7690 C.3    81  LEU81       0.0001
     26  CD2        7.2260   19.4040   19.7080 C.3    81  LEU81       0.0001
     27  N         -6.7290    8.5430   13.1650 N.3   171  ASP171     -0.1225
     28  CA        -5.4750    9.1660   13.5750 C.3   171  ASP171      0.1805
     29  C         -5.4650    9.4190   15.0830 C.2   171  ASP171      0.2598
     30  O         -6.4980    9.3470   15.7430 O.2   171  ASP171     -0.2718
     31  CB        -5.3650   10.5130   12.8380 C.3   171  ASP171      0.1424
     32  CG        -4.0000   11.1600   12.9510 C.2   171  ASP171      0.3668
     33  OD1       -3.9340   12.3820   12.7100 O.co2 171  ASP171     -0.2456
     34  OD2       -2.9960   10.4740   13.2320 O.co2 171  ASP171     -0.2456
     35  N         -4.2840    9.6660   15.6350 N.am  172  SER172     -0.1938
     36  CA        -4.1850   10.0040   17.0400 C.3   172  SER172      0.2055
     37  C         -4.5770   11.4880   17.0730 C.2   172  SER172      0.2643
     38  O         -4.7610   12.1140   16.0170 O.2   172  SER172     -0.2714
     39  CB        -2.7690    9.7610   17.5650 C.3   172  SER172      0.2130
     40  OG        -1.7860   10.2500   16.6740 O.3   172  SER172     -0.2179
     41  N         -4.7030   12.0640   18.2570 N.am  173  CYS173     -0.1953
     42  CA        -5.1050   13.4600   18.3410 C.3   173  CYS173      0.1843
     43  C         -4.6490   14.0720   19.6580 C.2   173  CYS173      0.2625
     44  O         -3.9350   13.4380   20.4360 O.2   173  CYS173     -0.2714
     45  CB        -6.6280   13.5610   18.1830 C.3   173  CYS173      0.0997
     46  SG        -7.2740   15.2160   17.7530 S.3   173  CYS173     -0.0797
     47  N         -5.0360   15.3200   19.8820 N.am  174  GLN174     -0.1977
     48  CA        -4.6950   16.0540   21.0930 C.3   174  GLN174      0.1601
     49  C         -5.1240   15.2280   22.3100 C.2   174  GLN174      0.2287
     50  O         -6.2790   14.8080   22.4060 O.2   174  GLN174     -0.2864
     51  CB        -5.4250   17.4040   21.0770 C.3   174  GLN174      0.0394
     52  CG        -4.7740   18.5080   21.8910 C.3   174  GLN174      0.0908
     53  CD        -4.8590   18.2670   23.3840 C.2   174  GLN174      0.2608
     54  OE1       -3.8840   18.4680   24.1090 O.2   174  GLN174     -0.2717
     55  NE2       -6.0210   17.8310   23.8510 N.am  174  GLN174     -0.0878
     56  N         -0.9180   12.4550   22.9680 N.3   177  SER177     -0.1217
     57  CA         0.5030   12.7970   23.0580 C.3   177  SER177      0.1889
     58  C          1.2290   12.0220   24.1530 C.2   177  SER177      0.2288
     59  O          0.7220   11.8900   25.2630 O.2   177  SER177     -0.2866
     60  CB         0.6610   14.2990   23.3060 C.3   177  SER177      0.2089
     61  OG         0.2070   15.0560   22.1970 O.3   177  SER177     -0.2183
     62  N          3.4170    9.0090   20.4540 N.3   191  VAL191     -0.1231
     63  CA         2.5660   10.0090   19.8160 C.3   191  VAL191      0.1692
     64  C          3.2080   11.3800   20.0170 C.2   191  VAL191      0.2593
     65  O          3.3550   11.8540   21.1440 O.2   191  VAL191     -0.2718
     66  CB         1.1430    9.9870   20.4000 C.3   191  VAL191      0.0266
     67  CG1        0.2720   11.0040   19.6860 C.3   191  VAL191      0.0020
     68  CG2        0.5460    8.5930   20.2760 C.3   191  VAL191      0.0020
     69  N          3.5770   12.0160   18.9110 N.am  192  SER192     -0.1938
     70  CA         4.2620   13.3010   18.9530 C.3   192  SER192      0.2055
     71  C          3.4660   14.5010   18.4250 C.2   192  SER192      0.2643
     72  O          3.1290   15.4110   19.1920 O.2   192  SER192     -0.2714
     73  CB         5.6110   13.1610   18.2260 C.3   192  SER192      0.2130
     74  OG         6.3870   14.3420   18.3030 O.3   192  SER192     -0.2179
     75  N          3.1700   14.5220   17.1290 N.am  193  TRP193     -0.1959
     76  CA         2.4260   15.6380   16.5610 C.3   193  TRP193      0.1771
     77  C          1.7450   15.3000   15.2450 C.2   193  TRP193      0.2620
     78  O          1.8070   14.1720   14.7710 O.2   193  TRP193     -0.2715
     79  CB         3.3330   16.8610   16.3740 C.3   193  TRP193      0.0590
     80  CG         4.4400   16.6820   15.3740 C.ar  193  TRP193      0.0006
     81  CD1        5.6380   16.0650   15.5870 C.ar  193  TRP193      0.0946
     82  CD2        4.4790   17.1820   14.0260 C.ar  193  TRP193      0.0152
     83  NE1        6.4210   16.1560   14.4650 N.ar  193  TRP193     -0.2442
     84  CE2        5.7380   16.8340   13.4900 C.ar  193  TRP193      0.0810
     85  CE3        3.5750   17.8890   13.2200 C.ar  193  TRP193      0.0012
     86  CZ2        6.1200   17.1700   12.1840 C.ar  193  TRP193      0.0191
     87  CZ3        3.9530   18.2210   11.9250 C.ar  193  TRP193      0.0001
     88  CH2        5.2170   17.8600   11.4220 C.ar  193  TRP193      0.0015
     89  N          1.0660   16.2890   14.6720 N.am  194  GLY194     -0.1940
     90  CA         0.3710   16.1030   13.4120 C.3   194  GLY194      0.2014
     91  C         -0.3390   17.3920   13.0720 C.2   194  GLY194      0.2640
     92  O         -0.5240   18.2330   13.9510 O.2   194  GLY194     -0.2714
     93  N         -0.6830   17.5870   11.8050 N.am  195  SER195     -0.1935
     94  CA        -1.3800   18.7990   11.4010 C.3   195  SER195      0.2055
     95  C         -2.8720   18.5220   11.5110 C.2   195  SER195      0.2644
     96  O         -3.4610   17.8650   10.6600 O.2   195  SER195     -0.2714
     97  CB        -0.9900   19.1980    9.9800 C.3   195  SER195      0.2130
     98  OG        -1.1520   20.5900    9.7820 O.3   195  SER195     -0.2179
     99  N         -3.4690   19.0030   12.5940 N.am  196  GLY196     -0.1939
    100  CA        -4.8770   18.7690   12.8230 C.3   196  GLY196      0.2014
    101  C         -4.9730   17.3170   13.2450 C.2   196  GLY196      0.2639
    102  O         -3.9880   16.7500   13.7270 O.2   196  GLY196     -0.2714
    103  N         -6.1380   16.7050   13.0640 N.am  197  CYS197     -0.1967
    104  CA        -6.3210   15.3020   13.4140 C.3   197  CYS197      0.1712
    105  C         -7.1630   14.6510   12.3450 C.2   197  CYS197      0.2296
    106  O         -8.1900   15.1990   11.9440 O.2   197  CYS197     -0.2864
    107  CB        -7.0390   15.1530   14.7500 C.3   197  CYS197      0.0983
    108  SG        -6.1440   15.8100   16.1850 S.3   197  CYS197     -0.0798
    109  N         -2.4070   14.2400    5.9670 N.3   202  LYS202     -0.1245
    110  CA        -1.7260   14.7440    7.1580 C.3   202  LYS202      0.1561
    111  C         -1.7180   13.6880    8.2630 C.2   202  LYS202      0.2260
    112  O         -2.3990   13.8290    9.2810 O.2   202  LYS202     -0.2867
    113  CB        -2.3870   16.0380    7.6460 C.3   202  LYS202      0.0271
    114  CG        -2.2260   17.2190    6.6920 C.3   202  LYS202      0.0035
    115  CD        -0.7490   17.5660    6.4900 C.3   202  LYS202      0.0206
    116  CE        -0.5690   18.7910    5.6020 C.3   202  LYS202      0.1093
    117  NZ         0.8540   19.2320    5.5290 N.3   202  LYS202     -0.1314
    118  N         -0.2580   11.0720   11.3410 N.3   204  GLY204     -0.1210
    119  CA         0.3610   11.3870   12.6130 C.3   204  GLY204      0.1956
    120  C          1.8570   11.1610   12.5430 C.2   204  GLY204      0.2612
    121  O          2.3170   10.2300   11.8780 O.2   204  GLY204     -0.2717
    122  N          2.6130   12.0080   13.2310 N.am  205  VAL205     -0.1965
    123  CA         4.0650   11.9090   13.2580 C.3   205  VAL205      0.1727
    124  C          4.4550   11.4240   14.6360 C.2   205  VAL205      0.2616
    125  O          3.9770   11.9460   15.6480 O.2   205  VAL205     -0.2715
    126  CB         4.7320   13.2600   12.9580 C.3   205  VAL205      0.0290
    127  CG1        6.2250   13.0760   12.7800 C.3   205  VAL205      0.0023
    128  CG2        4.1130   13.8800   11.7130 C.3   205  VAL205      0.0023
    129  N          5.3030   10.4040   14.6700 N.am  206  TYR206     -0.1974
    130  CA         5.7250    9.7850   15.9130 C.3   206  TYR206      0.1639
    131  C          7.2270    9.7630   16.1190 C.2   206  TYR206      0.2290
    132  O          7.9900    9.6670   15.1550 O.2   206  TYR206     -0.2864
    133  CB         5.1970    8.3540   15.9330 C.3   206  TYR206      0.0560
    134  CG         3.7140    8.2800   15.7190 C.ar  206  TYR206     -0.0198
    135  CD1        2.8470    8.3210   16.7980 C.ar  206  TYR206     -0.0009
    136  CD2        3.1710    8.2240   14.4350 C.ar  206  TYR206     -0.0009
    137  CE1        1.4640    8.3140   16.6200 C.ar  206  TYR206      0.0417
    138  CE2        1.7920    8.2180   14.2440 C.ar  206  TYR206      0.0417
    139  CZ         0.9450    8.2640   15.3460 C.ar  206  TYR206      0.1957
    140  OH        -0.4180    8.2600   15.1800 O.3   206  TYR206     -0.2866
@<TRIPOS>BOND
     1   117   116    1
     2   116   115    1
     3   109   110    1
     4   115   114    1
     5   114   113    1
     6   110   113    1
     7   110   111    1
     8   111   112    2
     9    98    97    1
    10    97    94    1
    11    96    95    2
    12   118   119    1
    13    94    95    1
    14    94    93    1
    15    88    87   ar
    16    88    86   ar
    17    95    99   am
    18   128   126    1
    19    93    91   am
    20   121   120    2
    21    87    85   ar
    22   106   105    2
    23    86    84   ar
    24   105   104    1
    25   120   119    1
    26   120   122   am
    27    99   100    1
    28    33    32   ar
    29   127   126    1
    30   100   101    1
    31    31    32    1
    32    31    28    1
    33    32    34   ar
    34   126   123    1
    35   103   101   am
    36   103   104    1
    37    91    90    1
    38    91    92    2
    39    27    28    1
    40    85    82   ar
    41   122   123    1
    42   101   102    2
    43   123   124    1
    44    90    89    1
    45   104   107    1
    46    84    82   ar
    47    84    83   ar
    48    28    29    1
    49    82    80   ar
    50   138   136   ar
    51   138   139   ar
    52   136   134   ar
    53    83    81   ar
    54   124   129   am
    55   124   125    2
    56   129   130    1
    57    89    77   am
    58   107   108    1
    59    78    77    2
    60    29    35   am
    61    29    30    2
    62   132   131    2
    63   140   139    1
    64    77    76    1
    65   139   137   ar
    66    80    81   ar
    67    80    79    1
    68    35    36    1
    69   134   133    1
    70   134   135   ar
    71   130   133    1
    72   130   131    1
    73    14    13    2
    74    38    37    2
    75   108    46    1
    76    79    76    1
    77    76    75    1
    78   137   135   ar
    79    40    39    1
    80    13    12    1
    81    36    37    1
    82    36    39    1
    83    37    41   am
    84    75    71   am
    85    19    20    1
    86    15    12    1
    87    15    16    1
    88    23    20    1
    89    23    24    1
    90    46    45    1
    91    25    24    1
    92    21    22    2
    93    21    20    1
    94    12    11    1
    95    45    42    1
    96    24    26    1
    97    73    74    1
    98    73    70    1
    99    41    42    1
   100    42    43    1
   101    71    70    1
   102    71    72    2
   103    16    17    2
   104    16    18   am
   105    69    70    1
   106    69    64   am
   107    43    47   am
   108    43    44    2
   109    67    66    1
   110    63    64    1
   111    63    66    1
   112    63    62    1
   113    47    48    1
   114    64    65    2
   115    68    66    1
   116    51    48    1
   117    51    52    1
   118    48    49    1
   119     9     7   ar
   120     9    10   ar
   121    52    53    1
   122     7     6   ar
   123    61    60    1
   124    49    50    2
   125    10     8   ar
   126    56    57    1
   127    57    60    1
   128    57    58    1
   129     6     8   ar
   130     6     5    1
   131    53    55   am
   132    53    54    2
   133     5     2    1
   134    58    59    2
   135     1     2    1
   136     2     3    1
   137     3     4    2
