@<TRIPOS>MOLECULE
tmp/1k1jA00.pdb
 172 172 0 0 0
SMALL
GASTEIGER

@<TRIPOS>ATOM
      1  N          7.4470    2.5170   23.9550 N.3    40  HIS40      -0.1241
      2  CA         6.3640    1.5510   24.0060 C.3    40  HIS40       0.1621
      3  C          6.2710    0.7170   22.7290 C.2    40  HIS40       0.2264
      4  O          5.4520   -0.1860   22.6330 O.2    40  HIS40      -0.2867
      5  CB         5.0200    2.2110   24.3910 C.3    40  HIS40       0.0745
      6  CG         4.2240    2.7670   23.2430 C.ar   40  HIS40       0.0817
      7  ND1        3.9930    4.1150   23.0830 N.ar   40  HIS40      -0.2268
      8  CD2        3.5170    2.1460   22.2660 C.ar   40  HIS40       0.1154
      9  CE1        3.1750    4.3030   22.0600 C.ar   40  HIS40       0.1986
     10  NE2        2.8730    3.1260   21.5510 N.ar   40  HIS40      -0.2212
     11  N         11.7710    5.0620   31.4090 N.3    76  TYR76      -0.1241
     12  CA        10.4740    4.9190   30.7630 C.3    76  TYR76       0.1605
     13  C          9.5120    4.2020   31.7050 C.2    76  TYR76       0.2264
     14  O          9.8590    3.1850   32.3110 O.2    76  TYR76      -0.2867
     15  CB        10.6160    4.1370   29.4490 C.3    76  TYR76       0.0534
     16  CG         9.3220    3.5480   28.9220 C.ar   76  TYR76      -0.0201
     17  CD1        8.2680    4.3670   28.5060 C.ar   76  TYR76      -0.0009
     18  CD2        9.1560    2.1670   28.8420 C.ar   76  TYR76      -0.0009
     19  CE1        7.0770    3.8180   28.0250 C.ar   76  TYR76       0.0417
     20  CE2        7.9720    1.6110   28.3630 C.ar   76  TYR76       0.0417
     21  CZ         6.9410    2.4350   27.9580 C.ar   76  TYR76       0.1957
     22  OH         5.7800    1.8680   27.4790 O.3    76  TYR76      -0.2866
     23  N          5.9460    2.3960   31.7010 N.3    78  SER78      -0.1202
     24  CA         4.8890    1.8550   30.8550 C.3    78  SER78       0.2020
     25  C          3.4550    2.1670   31.2690 C.2    78  SER78       0.2619
     26  O          2.5300    1.9750   30.4770 O.2    78  SER78      -0.2717
     27  CB         5.0760    0.3490   30.6640 C.3    78  SER78       0.2103
     28  OG         5.4750   -0.2720   31.8730 O.3    78  SER78      -0.2182
     29  N          3.2530    2.6390   32.4950 N.am   79  ASN79      -0.1960
     30  CA         1.8990    2.9650   32.9430 C.3    79  ASN79       0.1819
     31  C          1.5350    4.3970   32.5830 C.2    79  ASN79       0.2622
     32  O          0.4620    4.6620   32.0440 O.2    79  ASN79      -0.2715
     33  CB         1.7570    2.7620   34.4570 C.3    79  ASN79       0.1195
     34  CG         1.8650    1.3070   34.8560 C.2    79  ASN79       0.2630
     35  OD1        2.5970    0.9630   35.7850 O.2    79  ASN79      -0.2716
     36  ND2        1.1140    0.4410   34.1740 N.am   79  ASN79      -0.0877
     37  N          2.4390    5.3170   32.9040 N.am   80  THR80      -0.1937
     38  CA         2.2410    6.7380   32.6430 C.3    80  THR80       0.2028
     39  C          2.6890    7.1370   31.2410 C.2    80  THR80       0.2642
     40  O          2.2770    8.1790   30.7220 O.2    80  THR80      -0.2714
     41  CB         3.0430    7.5930   33.6450 C.3    80  THR80       0.1808
     42  OG1        4.4340    7.2820   33.5280 O.3    80  THR80      -0.2208
     43  CG2        2.6070    7.3090   35.0640 C.3    80  THR80       0.0379
     44  N          3.5530    6.3080   30.6560 N.am   81  LEU81      -0.1977
     45  CA         4.1370    6.5340   29.3380 C.3    81  LEU81       0.1596
     46  C          5.1050    7.7070   29.3720 C.2    81  LEU81       0.2287
     47  O          5.4260    8.2990   28.3480 O.2    81  LEU81      -0.2864
     48  CB         3.0660    6.7130   28.2510 C.3    81  LEU81       0.0297
     49  CG         2.2530    5.4490   27.9510 C.3    81  LEU81       0.0022
     50  CD1        1.2830    5.7260   26.8300 C.3    81  LEU81       0.0001
     51  CD2        3.1760    4.2900   27.5810 C.3    81  LEU81       0.0001
     52  N         -6.2730   13.3260   14.0760 N.3   171  ASP171     -0.1225
     53  CA        -5.3380   12.9260   15.1230 C.3   171  ASP171      0.1805
     54  C         -4.4980   11.7290   14.6690 C.2   171  ASP171      0.2598
     55  O         -4.7570   11.1390   13.6210 O.2   171  ASP171     -0.2718
     56  CB        -6.1900   12.5390   16.3440 C.3   171  ASP171      0.1424
     57  CG        -5.3840   12.2670   17.6060 C.2   171  ASP171      0.3668
     58  OD1       -4.2290   12.7140   17.7260 O.co2 171  ASP171     -0.2456
     59  OD2       -5.9500   11.6080   18.5030 O.co2 171  ASP171     -0.2456
     60  N         -3.4290   11.4400   15.4030 N.am  172  SER172     -0.1938
     61  CA        -2.6140   10.2700   15.1210 C.3   172  SER172      0.2055
     62  C         -3.3840    9.1300   15.8070 C.2   172  SER172      0.2643
     63  O         -4.2750    9.3800   16.6240 O.2   172  SER172     -0.2714
     64  CB        -1.2080   10.4320   15.7090 C.3   172  SER172      0.2130
     65  OG        -1.2520   10.9030   17.0510 O.3   172  SER172     -0.2179
     66  N         -3.0260    7.8880   15.5230 N.am  173  CYS173     -0.1953
     67  CA        -3.7410    6.7580   16.1050 C.3   173  CYS173      0.1843
     68  C         -2.8100    5.5520   16.2190 C.2   173  CYS173      0.2625
     69  O         -1.6190    5.6620   15.9270 O.2   173  CYS173     -0.2714
     70  CB        -4.9520    6.4370   15.2220 C.3   173  CYS173      0.0997
     71  SG        -6.2270    5.3980   15.9900 S.3   173  CYS173     -0.0797
     72  N         -3.3460    4.4060   16.6340 N.am  174  GLN174     -0.1977
     73  CA        -2.5460    3.1840   16.7830 C.3   174  GLN174      0.1601
     74  C         -1.7800    2.8900   15.5060 C.2   174  GLN174      0.2287
     75  O         -2.3440    2.9890   14.4120 O.2   174  GLN174     -0.2864
     76  CB        -3.4380    1.9860   17.0440 C.3   174  GLN174      0.0394
     77  CG        -4.5950    2.2350   17.9420 C.3   174  GLN174      0.0908
     78  CD        -5.5100    1.0470   17.9620 C.2   174  GLN174      0.2608
     79  OE1       -6.4650    0.9740   17.1850 O.2   174  GLN174     -0.2717
     80  NE2       -5.2050    0.0820   18.8210 N.am  174  GLN174     -0.0878
     81  N          2.3310    5.3300   16.4750 N.3   177  SER177     -0.1217
     82  CA         3.2690    5.4340   17.5840 C.3   177  SER177      0.1889
     83  C          4.7270    5.3420   17.1650 C.2   177  SER177      0.2288
     84  O          5.0790    4.5500   16.2960 O.2   177  SER177     -0.2866
     85  CB         2.9470    4.3760   18.6220 C.3   177  SER177      0.2089
     86  OG         1.7120    4.6770   19.2140 O.3   177  SER177     -0.2183
     87  N          5.1200   10.4160   18.2800 N.3   191  VAL191     -0.1231
     88  CA         3.7560    9.9700   18.5380 C.3   191  VAL191      0.1692
     89  C          3.8010    9.0270   19.7460 C.2   191  VAL191      0.2593
     90  O          4.4700    7.9900   19.6990 O.2   191  VAL191     -0.2718
     91  CB         3.1710    9.2330   17.3220 C.3   191  VAL191      0.0266
     92  CG1        1.7380    8.8130   17.6020 C.3   191  VAL191      0.0020
     93  CG2        3.2390   10.1180   16.0850 C.3   191  VAL191      0.0020
     94  N          3.1100    9.3930   20.8250 N.am  192  SER192     -0.1938
     95  CA         3.1200    8.5800   22.0320 C.3   192  SER192      0.2055
     96  C          1.7710    7.9600   22.3960 C.2   192  SER192      0.2643
     97  O          1.6090    6.7380   22.3190 O.2   192  SER192     -0.2714
     98  CB         3.6780    9.3890   23.2140 C.3   192  SER192      0.2130
     99  OG         3.7890    8.6060   24.3900 O.3   192  SER192     -0.2179
    100  N          0.8010    8.7830   22.7910 N.am  193  TRP193     -0.1959
    101  CA        -0.5060    8.2540   23.1790 C.3   193  TRP193      0.1771
    102  C         -1.6480    9.2460   23.0530 C.2   193  TRP193      0.2620
    103  O         -1.4760   10.3640   22.5860 O.2   193  TRP193     -0.2715
    104  CB        -0.4700    7.7230   24.6190 C.3   193  TRP193      0.0590
    105  CG        -0.2020    8.7740   25.6630 C.ar  193  TRP193      0.0006
    106  CD1        1.0090    9.3020   26.0070 C.ar  193  TRP193      0.0946
    107  CD2       -1.1670    9.4000   26.5190 C.ar  193  TRP193      0.0152
    108  NE1        0.8620   10.2100   27.0290 N.ar  193  TRP193     -0.2442
    109  CE2       -0.4640   10.2950   27.3590 C.ar  193  TRP193      0.0810
    110  CE3       -2.5560    9.2920   26.6590 C.ar  193  TRP193      0.0012
    111  CZ2       -1.1060   11.0790   28.3230 C.ar  193  TRP193      0.0191
    112  CZ3       -3.1940   10.0720   27.6210 C.ar  193  TRP193      0.0001
    113  CH2       -2.4670   10.9550   28.4380 C.ar  193  TRP193      0.0015
    114  N         -2.8290    8.7990   23.4520 N.am  194  GLY194     -0.1940
    115  CA        -4.0130    9.6330   23.4020 C.3   194  GLY194      0.2014
    116  C         -5.1710    8.7750   23.8470 C.2   194  GLY194      0.2640
    117  O         -5.0550    7.5500   23.8580 O.2   194  GLY194     -0.2714
    118  N         -6.2680    9.4050   24.2450 N.am  195  SER195     -0.1935
    119  CA        -7.4400    8.6670   24.6870 C.3   195  SER195      0.2055
    120  C         -8.2700    8.4040   23.4480 C.2   195  SER195      0.2644
    121  O         -9.0100    9.2770   22.9880 O.2   195  SER195     -0.2714
    122  CB        -8.2270    9.4850   25.7100 C.3   195  SER195      0.2130
    123  OG        -9.2700    8.7180   26.2670 O.3   195  SER195     -0.2179
    124  N         -8.1100    7.2100   22.8930 N.am  196  GLY196     -0.1939
    125  CA        -8.8220    6.8560   21.6810 C.3   196  GLY196      0.2014
    126  C         -8.1090    7.5580   20.5390 C.2   196  GLY196      0.2639
    127  O         -6.8990    7.8120   20.6160 O.2   196  GLY196     -0.2714
    128  N         -8.8420    7.8750   19.4810 N.am  197  CYS197     -0.1967
    129  CA        -8.2740    8.5600   18.3370 C.3   197  CYS197      0.1712
    130  C         -9.2610    9.5670   17.7920 C.2   197  CYS197      0.2296
    131  O        -10.4460    9.2660   17.6280 O.2   197  CYS197     -0.2864
    132  CB        -7.9180    7.5670   17.2420 C.3   197  CYS197      0.0983
    133  SG        -6.6370    6.3760   17.7220 S.3   197  CYS197     -0.0798
    134  N         -9.8150   15.3910   23.2830 N.3   202  LYS202     -0.1231
    135  CA        -8.7940   14.4190   23.6680 C.3   202  LYS202      0.1678
    136  C         -7.7120   14.4110   22.5900 C.2   202  LYS202      0.2434
    137  O         -7.6490   13.5040   21.7550 O.2   202  LYS202     -0.2733
    138  CB        -9.4080   13.0210   23.8130 C.3   202  LYS202      0.0284
    139  CG       -10.4530   12.9230   24.9080 C.3   202  LYS202      0.0035
    140  CD        -9.8420   13.1770   26.2790 C.3   202  LYS202      0.0206
    141  CE       -10.9120   13.4380   27.3240 C.3   202  LYS202      0.1093
    142  NZ       -10.3420   13.5190   28.6990 N.3   202  LYS202     -0.1314
    143  N         -6.8810   15.4640   22.5580 N.am  203  PRO203     -0.2718
    144  CA        -5.8090   15.5630   21.5640 C.3   203  PRO203      0.1535
    145  C         -4.7220   14.5140   21.7400 C.2   203  PRO203      0.2599
    146  O         -4.7080   13.7620   22.7120 O.2   203  PRO203     -0.2715
    147  CB        -5.2770   16.9770   21.7900 C.3   203  PRO203      0.0310
    148  CG        -5.4890   17.1770   23.2500 C.3   203  PRO203      0.0237
    149  CD        -6.8790   16.6400   23.4440 C.3   203  PRO203      0.0939
    150  N         -3.8120   14.4610   20.7790 N.am  204  GLY204     -0.1941
    151  CA        -2.7330   13.5040   20.8590 C.3   204  GLY204      0.2014
    152  C         -1.6720   14.0490   21.7820 C.2   204  GLY204      0.2639
    153  O         -1.4490   15.2580   21.8250 O.2   204  GLY204     -0.2714
    154  N         -1.0420   13.1610   22.5390 N.am  205  VAL205     -0.1963
    155  CA         0.0170   13.5310   23.4580 C.3   205  VAL205      0.1727
    156  C          1.2860   12.9700   22.8530 C.2   205  VAL205      0.2616
    157  O          1.3320   11.8100   22.4310 O.2   205  VAL205     -0.2715
    158  CB        -0.2000   12.9270   24.8420 C.3   205  VAL205      0.0290
    159  CG1        0.8530   13.4460   25.7960 C.3   205  VAL205      0.0023
    160  CG2       -1.5900   13.2630   25.3430 C.3   205  VAL205      0.0023
    161  N          2.3140   13.8040   22.8150 N.am  206  TYR206     -0.1974
    162  CA         3.5760   13.4280   22.2140 C.3   206  TYR206      0.1639
    163  C          4.7500   13.6080   23.1500 C.2   206  TYR206      0.2290
    164  O          4.7150   14.4460   24.0500 O.2   206  TYR206     -0.2864
    165  CB         3.7770   14.2660   20.9480 C.3   206  TYR206      0.0560
    166  CG         2.6420   14.1150   19.9570 C.ar  206  TYR206     -0.0198
    167  CD1        1.4730   14.8730   20.0710 C.ar  206  TYR206     -0.0009
    168  CD2        2.7100   13.1630   18.9470 C.ar  206  TYR206     -0.0009
    169  CE1        0.3990   14.6760   19.1980 C.ar  206  TYR206      0.0417
    170  CE2        1.6480   12.9600   18.0740 C.ar  206  TYR206      0.0417
    171  CZ         0.4980   13.7160   18.2060 C.ar  206  TYR206      0.1957
    172  OH        -0.5410   13.4880   17.3400 O.3   206  TYR206     -0.2866
@<TRIPOS>BOND
     1    55    54    2
     2    52    53    1
     3    75    74    2
     4    54    53    1
     5    54    60   am
     6    61    60    1
     7    61    64    1
     8    61    62    1
     9    53    56    1
    10    70    71    1
    11    70    67    1
    12    74    73    1
    13    66    62   am
    14    66    67    1
    15    64    65    1
    16    62    63    2
    17    69    68    2
    18    71   133    1
    19    93    91    1
    20    67    68    1
    21    68    72   am
    22    84    83    2
    23    56    57    1
    24    81    82    1
    25    72    73    1
    26    73    76    1
    27    76    77    1
    28    83    82    1
    29    79    78    2
    30   132   133    1
    31   132   129    1
    32    91    92    1
    33    91    88    1
    34   172   171    1
    35    82    85    1
    36    57    58   ar
    37    57    59   ar
    38   131   130    2
    39   130   129    1
    40    77    78    1
    41    78    80   am
    42   170   171   ar
    43   170   168   ar
    44   171   169   ar
    45    87    88    1
    46   129   128    1
    47    88    89    1
    48    85    86    1
    49   168   166   ar
    50   169   167   ar
    51   128   126   am
    52    90    89    2
    53    89    94   am
    54   166   167   ar
    55   166   165    1
    56   126   127    2
    57   126   125    1
    58   150   151    1
    59   150   145   am
    60    94    95    1
    61   151   152    1
    62   165   162    1
    63    10     9   ar
    64    10     8   ar
    65   144   145    1
    66   144   147    1
    67   144   143    1
    68   125   124    1
    69   145   146    2
    70   137   136    2
    71   152   153    2
    72   152   154   am
    73   147   148    1
    74    95    96    1
    75    95    98    1
    76     9     7   ar
    77   162   161    1
    78   162   163    1
    79     8     6   ar
    80    97    96    2
    81    96   100   am
    82   157   156    2
    83   154   155    1
    84   143   136   am
    85   143   149    1
    86   103   102    2
    87   136   135    1
    88     4     3    2
    89     3     2    1
    90   100   101    1
    91   161   156   am
    92   156   155    1
    93   124   120   am
    94   121   120    2
    95   102   101    1
    96   102   114   am
    97     7     6   ar
    98   163   164    2
    99   101   104    1
   100    98    99    1
   101     6     5    1
   102   148   149    1
   103   134   135    1
   104   115   114    1
   105   115   116    1
   106   120   119    1
   107   155   158    1
   108   135   138    1
   109   138   139    1
   110   116   117    2
   111   116   118   am
   112     1     2    1
   113     2     5    1
   114   118   119    1
   115   104   105    1
   116   119   122    1
   117   158   160    1
   118   158   159    1
   119   139   140    1
   120   105   106   ar
   121   105   107   ar
   122   122   123    1
   123   106   108   ar
   124   140   141    1
   125   107   110   ar
   126   107   109   ar
   127   110   112   ar
   128    50    49    1
   129   108   109   ar
   130   141   142    1
   131   109   111   ar
   132    22    21    1
   133    51    49    1
   134   112   113   ar
   135    49    48    1
   136    21    19   ar
   137    21    20   ar
   138    19    17   ar
   139    48    45    1
   140   111   113   ar
   141    47    46    2
   142    20    18   ar
   143    17    16   ar
   144    18    16   ar
   145    16    15    1
   146    45    46    1
   147    45    44    1
   148    15    12    1
   149    26    25    2
   150    44    39   am
   151    27    24    1
   152    27    28    1
   153    40    39    2
   154    12    11    1
   155    12    13    1
   156    24    25    1
   157    24    23    1
   158    39    38    1
   159    25    29   am
   160    13    14    2
   161    32    31    2
   162    29    30    1
   163    31    37   am
   164    31    30    1
   165    38    37    1
   166    38    41    1
   167    30    33    1
   168    42    41    1
   169    41    43    1
   170    36    34   am
   171    33    34    1
   172    34    35    2
