@<TRIPOS>MOLECULE
tmp/1k1mA00.pdb
 158 156 0 0 0
SMALL
GASTEIGER

@<TRIPOS>ATOM
      1  N          7.4590    2.4590   24.0790 N.3    40  HIS40      -0.1241
      2  CA         6.3760    1.4870   24.0810 C.3    40  HIS40       0.1621
      3  C          6.3080    0.6510   22.8050 C.2    40  HIS40       0.2264
      4  O          5.4830   -0.2470   22.6940 O.2    40  HIS40      -0.2867
      5  CB         5.0230    2.1440   24.4390 C.3    40  HIS40       0.0745
      6  CG         4.2600    2.7080   23.2670 C.ar   40  HIS40       0.0817
      7  ND1        4.1630    4.0580   23.0300 N.ar   40  HIS40      -0.2268
      8  CD2        3.4540    2.1010   22.3640 C.ar   40  HIS40       0.1154
      9  CE1        3.3200    4.2680   22.0240 C.ar   40  HIS40       0.1986
     10  NE2        2.8830    3.0980   21.6070 N.ar   40  HIS40      -0.2212
     11  N         11.8270    5.0710   31.6520 N.3    76  TYR76      -0.1241
     12  CA        10.5350    4.9190   30.9940 C.3    76  TYR76       0.1605
     13  C          9.5490    4.2120   31.9250 C.2    76  TYR76       0.2264
     14  O          9.8750    3.1930   32.5340 O.2    76  TYR76      -0.2867
     15  CB        10.7100    4.1150   29.6970 C.3    76  TYR76       0.0534
     16  CG         9.4270    3.5450   29.1190 C.ar   76  TYR76      -0.0201
     17  CD1        8.4250    4.3790   28.6240 C.ar   76  TYR76      -0.0009
     18  CD2        9.2230    2.1690   29.0640 C.ar   76  TYR76      -0.0009
     19  CE1        7.2500    3.8530   28.0840 C.ar   76  TYR76       0.0417
     20  CE2        8.0590    1.6320   28.5280 C.ar   76  TYR76       0.0417
     21  CZ         7.0780    2.4760   28.0400 C.ar   76  TYR76       0.1957
     22  OH         5.9470    1.9290   27.4870 O.3    76  TYR76      -0.2866
     23  N          5.9690    2.3930   31.8590 N.3    78  SER78      -0.1202
     24  CA         4.9380    1.8330   30.9910 C.3    78  SER78       0.2020
     25  C          3.5090    2.1830   31.3850 C.2    78  SER78       0.2618
     26  O          2.5850    2.0440   30.5810 O.2    78  SER78      -0.2717
     27  CB         5.0990    0.3180   30.9010 C.3    78  SER78       0.2103
     28  OG         5.2960   -0.2440   32.1890 O.3    78  SER78      -0.2182
     29  N          3.3130    2.6190   32.6230 N.am   79  ASN79      -0.1974
     30  CA         1.9750    2.9860   33.0710 C.3    79  ASN79       0.1688
     31  C          1.6380    4.4310   32.7420 C.2    79  ASN79       0.2292
     32  O          0.5660    4.7140   32.2090 O.2    79  ASN79      -0.2864
     33  CB         1.8030    2.7280   34.5690 C.3    79  ASN79       0.1181
     34  CG         1.9040    1.2560   34.9190 C.2    79  ASN79       0.2629
     35  OD1        2.6730    0.8690   35.8000 O.2    79  ASN79      -0.2716
     36  ND2        1.1350    0.4240   34.2240 N.am   79  ASN79      -0.0877
     37  N          3.6430    6.3490   30.7560 N.3    81  LEU81      -0.1245
     38  CA         4.2090    6.5910   29.4290 C.3    81  LEU81       0.1561
     39  C          5.1720    7.7730   29.4550 C.2    81  LEU81       0.2260
     40  O          5.4460    8.4000   28.4280 O.2    81  LEU81      -0.2867
     41  CB         3.1230    6.7800   28.3640 C.3    81  LEU81       0.0270
     42  CG         2.2610    5.5420   28.0830 C.3    81  LEU81       0.0019
     43  CD1        1.3080    5.8320   26.9490 C.3    81  LEU81       0.0001
     44  CD2        3.1280    4.3370   27.7420 C.3    81  LEU81       0.0001
     45  N         -6.3100   13.2960   14.1490 N.3   171  ASP171     -0.1225
     46  CA        -5.3870   12.8910   15.2030 C.3   171  ASP171      0.1805
     47  C         -4.5240   11.7010   14.7650 C.2   171  ASP171      0.2598
     48  O         -4.7510   11.1130   13.7000 O.2   171  ASP171     -0.2718
     49  CB        -6.2560   12.4860   16.4080 C.3   171  ASP171      0.1424
     50  CG        -5.4630   12.1870   17.6710 C.2   171  ASP171      0.3668
     51  OD1       -4.3140   12.6520   17.8270 O.co2 171  ASP171     -0.2456
     52  OD2       -6.0390   11.4890   18.5360 O.co2 171  ASP171     -0.2456
     53  N         -3.4690   11.4130   15.5240 N.am  172  SER172     -0.1938
     54  CA        -2.6420   10.2450   15.2480 C.3   172  SER172      0.2055
     55  C         -3.4080    9.1000   15.9220 C.2   172  SER172      0.2643
     56  O         -4.2930    9.3430   16.7540 O.2   172  SER172     -0.2714
     57  CB        -1.2370   10.4020   15.8460 C.3   172  SER172      0.2130
     58  OG        -1.2750   10.7460   17.2200 O.3   172  SER172     -0.2179
     59  N         -3.0600    7.8620   15.6050 N.am  173  CYS173     -0.1953
     60  CA        -3.7710    6.7260   16.1670 C.3   173  CYS173      0.1843
     61  C         -2.8420    5.5110   16.2430 C.2   173  CYS173      0.2625
     62  O         -1.6700    5.6040   15.8820 O.2   173  CYS173     -0.2714
     63  CB        -4.9910    6.4370   15.2810 C.3   173  CYS173      0.0997
     64  SG        -6.3010    5.4100   16.0170 S.3   173  CYS173     -0.0797
     65  N         -3.3600    4.3850   16.7250 N.am  174  GLN174     -0.1977
     66  CA        -2.5770    3.1550   16.8390 C.3   174  GLN174      0.1601
     67  C         -1.8440    2.8520   15.5390 C.2   174  GLN174      0.2287
     68  O         -2.4260    2.9650   14.4580 O.2   174  GLN174     -0.2864
     69  CB        -3.4870    1.9790   17.1710 C.3   174  GLN174      0.0394
     70  CG        -4.2280    2.1310   18.4650 C.3   174  GLN174      0.0908
     71  CD        -5.0770    0.9300   18.7780 C.2   174  GLN174      0.2608
     72  OE1       -6.2590    0.8790   18.4260 O.2   174  GLN174     -0.2717
     73  NE2       -4.4820   -0.0560   19.4350 N.am  174  GLN174     -0.0878
     74  N          2.3540    5.2800   16.5290 N.3   177  SER177     -0.1217
     75  CA         3.2830    5.3670   17.6470 C.3   177  SER177      0.1889
     76  C          4.7440    5.2960   17.2040 C.2   177  SER177      0.2288
     77  O          5.0980    4.5330   16.3050 O.2   177  SER177     -0.2866
     78  CB         2.9760    4.2570   18.6480 C.3   177  SER177      0.2089
     79  OG         1.6750    4.4070   19.1840 O.3   177  SER177     -0.2183
     80  N          5.1230   10.3640   18.4060 N.3   191  VAL191     -0.1231
     81  CA         3.7540    9.9320   18.6700 C.3   191  VAL191      0.1692
     82  C          3.7930    8.9650   19.8530 C.2   191  VAL191      0.2593
     83  O          4.4350    7.9120   19.7780 O.2   191  VAL191     -0.2718
     84  CB         3.1320    9.2300   17.4390 C.3   191  VAL191      0.0266
     85  CG1        1.7020    8.8200   17.7310 C.3   191  VAL191      0.0020
     86  CG2        3.1780   10.1410   16.2300 C.3   191  VAL191      0.0020
     87  N          3.1150    9.3260   20.9390 N.am  192  SER192     -0.1938
     88  CA         3.1070    8.5030   22.1440 C.3   192  SER192      0.2055
     89  C          1.7430    7.9050   22.4940 C.2   192  SER192      0.2643
     90  O          1.5410    6.6940   22.3550 O.2   192  SER192     -0.2714
     91  CB         3.6660    9.3080   23.3260 C.3   192  SER192      0.2130
     92  OG         3.8020    8.5200   24.4980 O.3   192  SER192     -0.2179
     93  N          0.8130    8.7360   22.9540 N.am  193  TRP193     -0.1959
     94  CA        -0.5040    8.2380   23.3370 C.3   193  TRP193      0.1771
     95  C         -1.6290    9.2350   23.1450 C.2   193  TRP193      0.2620
     96  O         -1.4470   10.2990   22.5550 O.2   193  TRP193     -0.2715
     97  CB        -0.4990    7.7430   24.7940 C.3   193  TRP193      0.0590
     98  CG        -0.2310    8.7980   25.8410 C.ar  193  TRP193      0.0006
     99  CD1        0.9760    9.3460   26.1650 C.ar  193  TRP193      0.0946
    100  CD2       -1.1950    9.4100   26.7140 C.ar  193  TRP193      0.0152
    101  NE1        0.8260   10.2580   27.1810 N.ar  193  TRP193     -0.2442
    102  CE2       -0.4920   10.3210   27.5340 C.ar  193  TRP193      0.0810
    103  CE3       -2.5780    9.2770   26.8770 C.ar  193  TRP193      0.0012
    104  CZ2       -1.1330   11.1010   28.5090 C.ar  193  TRP193      0.0191
    105  CZ3       -3.2150   10.0540   27.8500 C.ar  193  TRP193      0.0001
    106  CH2       -2.4900   10.9550   28.6500 C.ar  193  TRP193      0.0015
    107  N         -2.8080    8.8490   23.6140 N.am  194  GLY194     -0.1940
    108  CA        -3.9830    9.6910   23.5210 C.3   194  GLY194      0.2014
    109  C         -5.1620    8.8400   23.9320 C.2   194  GLY194      0.2640
    110  O         -5.0580    7.6130   23.9090 O.2   194  GLY194     -0.2714
    111  N         -6.2520    9.4700   24.3530 N.am  195  SER195     -0.1935
    112  CA        -7.4410    8.7310   24.7560 C.3   195  SER195      0.2055
    113  C         -8.2560    8.4630   23.4960 C.2   195  SER195      0.2644
    114  O         -8.9340    9.3570   22.9810 O.2   195  SER195     -0.2714
    115  CB        -8.2560    9.5340   25.7690 C.3   195  SER195      0.2130
    116  OG        -9.2610    8.7280   26.3570 O.3   195  SER195     -0.2179
    117  N         -8.1640    7.2350   22.9920 N.am  196  GLY196     -0.1939
    118  CA        -8.8610    6.8700   21.7730 C.3   196  GLY196      0.2014
    119  C         -8.1500    7.5530   20.6170 C.2   196  GLY196      0.2639
    120  O         -6.9410    7.7950   20.6840 O.2   196  GLY196     -0.2714
    121  N         -8.8830    7.8620   19.5560 N.am  197  CYS197     -0.1967
    122  CA        -8.3120    8.5380   18.4060 C.3   197  CYS197      0.1712
    123  C         -9.2960    9.5400   17.8660 C.2   197  CYS197      0.2296
    124  O        -10.4720    9.2250   17.6800 O.2   197  CYS197     -0.2864
    125  CB        -7.9790    7.5450   17.3050 C.3   197  CYS197      0.0983
    126  SG        -6.7060    6.3420   17.7680 S.3   197  CYS197     -0.0798
    127  N         -9.9410   15.4090   23.2920 N.3   202  LYS202     -0.1231
    128  CA        -8.8980   14.4540   23.6670 C.3   202  LYS202      0.1678
    129  C         -7.8180   14.4540   22.5860 C.2   202  LYS202      0.2434
    130  O         -7.8010   13.5970   21.7010 O.2   202  LYS202     -0.2733
    131  CB        -9.4720   13.0410   23.8220 C.3   202  LYS202      0.0284
    132  CG       -10.4760   12.8820   24.9500 C.3   202  LYS202      0.0035
    133  CD        -9.8640   13.2620   26.2900 C.3   202  LYS202      0.0206
    134  CE       -10.8340   13.0040   27.4310 C.3   202  LYS202      0.1093
    135  NZ       -10.2440   13.3620   28.7500 N.3   202  LYS202     -0.1314
    136  N         -6.9290   15.4570   22.6120 N.am  203  PRO203     -0.2718
    137  CA        -5.8570   15.5380   21.6160 C.3   203  PRO203      0.1535
    138  C         -4.7660   14.4930   21.8360 C.2   203  PRO203      0.2599
    139  O         -4.7630   13.7770   22.8430 O.2   203  PRO203     -0.2715
    140  CB        -5.3320   16.9580   21.8140 C.3   203  PRO203      0.0310
    141  CG        -5.5130   17.1660   23.2850 C.3   203  PRO203      0.0237
    142  CD        -6.8970   16.6190   23.5140 C.3   203  PRO203      0.0939
    143  N         -3.8440   14.3970   20.8840 N.am  204  GLY204     -0.1955
    144  CA        -2.7700   13.4380   21.0070 C.3   204  GLY204      0.1869
    145  C         -1.6800   13.9910   21.8990 C.2   204  GLY204      0.2309
    146  O         -1.4530   15.1940   21.9180 O.2   204  GLY204     -0.2863
    147  N          2.3370   13.7610   22.8630 N.3   206  TYR206     -0.1241
    148  CA         3.5920   13.3930   22.2450 C.3   206  TYR206      0.1605
    149  C          4.7560   13.6070   23.1850 C.2   206  TYR206      0.2264
    150  O          4.6960   14.4560   24.0730 O.2   206  TYR206     -0.2867
    151  CB         3.7780   14.2350   20.9790 C.3   206  TYR206      0.0534
    152  CG         2.6300   14.0890   20.0020 C.ar  206  TYR206     -0.0201
    153  CD1        1.4810   14.8690   20.1170 C.ar  206  TYR206     -0.0009
    154  CD2        2.6660   13.1200   19.0050 C.ar  206  TYR206     -0.0009
    155  CE1        0.3950   14.6780   19.2610 C.ar  206  TYR206      0.0417
    156  CE2        1.5910   12.9220   18.1460 C.ar  206  TYR206      0.0417
    157  CZ         0.4620   13.6980   18.2770 C.ar  206  TYR206      0.1957
    158  OH        -0.5890   13.4800   17.4220 O.3   206  TYR206     -0.2866
@<TRIPOS>BOND
     1    48    47    2
     2    45    46    1
     3    68    67    2
     4    47    46    1
     5    47    53   am
     6    46    49    1
     7    54    53    1
     8    54    57    1
     9    54    55    1
    10    63    64    1
    11    63    60    1
    12    67    66    1
    13    59    55   am
    14    59    60    1
    15    57    58    1
    16    62    61    2
    17    55    56    2
    18    64   126    1
    19    60    61    1
    20    86    84    1
    21    61    65   am
    22    77    76    2
    23    49    50    1
    24    74    75    1
    25    65    66    1
    26    66    69    1
    27    69    70    1
    28    76    75    1
    29   125   126    1
    30   125   122    1
    31   158   157    1
    32    84    85    1
    33    84    81    1
    34    75    78    1
    35    50    51   ar
    36    50    52   ar
    37   124   123    2
    38   123   122    1
    39   156   157   ar
    40   156   154   ar
    41   157   155   ar
    42   122   121    1
    43    80    81    1
    44    72    71    2
    45    70    71    1
    46    78    79    1
    47    81    82    1
    48    71    73   am
    49   154   152   ar
    50   155   153   ar
    51   121   119   am
    52    83    82    2
    53    82    87   am
    54   152   153   ar
    55   152   151    1
    56   119   120    2
    57   119   118    1
    58   143   144    1
    59   143   138   am
    60    87    88    1
    61   151   148    1
    62   144   145    1
    63    10     9   ar
    64    10     8   ar
    65   137   140    1
    66   137   138    1
    67   137   136    1
    68   130   129    2
    69   118   117    1
    70   140   141    1
    71   138   139    2
    72   145   146    2
    73     9     7   ar
    74    88    89    1
    75    88    91    1
    76   148   147    1
    77   148   149    1
    78    90    89    2
    79     8     6   ar
    80    89    93   am
    81    96    95    2
    82   129   136   am
    83   129   128    1
    84   136   142    1
    85     4     3    2
    86     3     2    1
    87    93    94    1
    88   114   113    2
    89   117   113   am
    90     7     6   ar
    91    95    94    1
    92    95   107   am
    93   149   150    2
    94     6     5    1
    95   141   142    1
    96   127   128    1
    97    91    92    1
    98    94    97    1
    99   113   112    1
   100   108   107    1
   101   108   109    1
   102   128   131    1
   103   131   132    1
   104   110   109    2
   105   109   111   am
   106     1     2    1
   107     2     5    1
   108   111   112    1
   109   112   115    1
   110    97    98    1
   111   132   133    1
   112   115   116    1
   113    98    99   ar
   114    98   100   ar
   115    99   101   ar
   116   133   134    1
   117   100   103   ar
   118   100   102   ar
   119   103   105   ar
   120    43    42    1
   121   101   102   ar
   122   134   135    1
   123    22    21    1
   124   102   104   ar
   125    44    42    1
   126   105   106   ar
   127    21    19   ar
   128    21    20   ar
   129    42    41    1
   130    19    17   ar
   131    41    38    1
   132    40    39    2
   133   104   106   ar
   134    20    18   ar
   135    17    16   ar
   136    18    16   ar
   137    16    15    1
   138    38    39    1
   139    38    37    1
   140    15    12    1
   141    26    25    2
   142    27    24    1
   143    27    28    1
   144    24    25    1
   145    24    23    1
   146    12    11    1
   147    12    13    1
   148    25    29   am
   149    13    14    2
   150    32    31    2
   151    29    30    1
   152    31    30    1
   153    30    33    1
   154    36    34   am
   155    33    34    1
   156    34    35    2
