@<TRIPOS>MOLECULE
tmp/1k1nA00.pdb
 162 160 0 0 0
SMALL
GASTEIGER

@<TRIPOS>ATOM
      1  N          7.1920   16.7950   25.0490 N.3    40  HIS40      -0.1241
      2  CA         6.2390   17.9000   25.0620 C.3    40  HIS40       0.1621
      3  C          5.1610   17.7310   26.1390 C.2    40  HIS40       0.2264
      4  O          4.3060   18.5940   26.3160 O.2    40  HIS40      -0.2867
      5  CB         5.6540   18.1880   23.6600 C.3    40  HIS40       0.0745
      6  CG         4.5760   17.2500   23.2140 C.ar   40  HIS40       0.0817
      7  ND1        4.7620   16.3260   22.2090 N.ar   40  HIS40      -0.2268
      8  CD2        3.2740   17.1430   23.5830 C.ar   40  HIS40       0.1154
      9  CE1        3.6300   15.6840   21.9790 C.ar   40  HIS40       0.1986
     10  NE2        2.7090   16.1660   22.7960 N.ar   40  HIS40      -0.2212
     11  N         11.7510   21.9100   21.1310 N.3    78  SER78      -0.1202
     12  CA        10.3160   22.1720   21.1850 C.3    78  SER78       0.2020
     13  C          9.6890   22.8490   19.9610 C.2    78  SER78       0.2618
     14  O          8.4620   22.8680   19.8270 O.2    78  SER78      -0.2717
     15  CB         9.9710   22.9620   22.4430 C.3    78  SER78       0.2103
     16  OG        10.6100   24.2190   22.4350 O.3    78  SER78      -0.2182
     17  N         10.5070   23.4110   19.0760 N.am   79  ASN79      -0.1974
     18  CA         9.9730   24.0770   17.8890 C.3    79  ASN79       0.1688
     19  C          9.7760   23.1000   16.7300 C.2    79  ASN79       0.2292
     20  O          8.8020   23.1980   15.9860 O.2    79  ASN79      -0.2864
     21  CB        10.8950   25.2140   17.4370 C.3    79  ASN79       0.1181
     22  CG        11.0100   26.3220   18.4620 C.2    79  ASN79       0.2629
     23  OD1       12.0810   26.8980   18.6370 O.2    79  ASN79      -0.2716
     24  ND2        9.9070   26.6470   19.1230 N.am   79  ASN79      -0.0877
     25  N         10.0600   19.6800   17.3190 N.3    81  LEU81      -0.1245
     26  CA         9.5810   18.4610   17.9540 C.3    81  LEU81       0.1561
     27  C         10.5320   17.2980   17.7370 C.2    81  LEU81       0.2260
     28  O         10.1770   16.1410   17.9470 O.2    81  LEU81      -0.2867
     29  CB         8.1590   18.1260   17.4990 C.3    81  LEU81       0.0270
     30  CG         7.1420   19.1190   18.0660 C.3    81  LEU81       0.0019
     31  CD1        5.8400   19.0120   17.3200 C.3    81  LEU81       0.0001
     32  CD2        6.9400   18.8660   19.5550 C.3    81  LEU81       0.0001
     33  N          9.9100   18.8370    7.4240 N.3   155  GLN155     -0.1245
     34  CA         9.6290   18.7440    8.8510 C.3   155  GLN155      0.1566
     35  C          9.9790   17.3890    9.4550 C.2   155  GLN155      0.2260
     36  O         10.1730   17.2840   10.6570 O.2   155  GLN155     -0.2867
     37  CB         8.1530   19.0470    9.1090 C.3   155  GLN155      0.0367
     38  CG         7.7260   20.4460    8.7020 C.3   155  GLN155      0.0905
     39  CD         6.2320   20.5610    8.4880 C.2   155  GLN155      0.2608
     40  OE1        5.7530   20.5480    7.3500 O.2   155  GLN155     -0.2717
     41  NE2        5.4850   20.6750    9.5750 N.am  155  GLN155     -0.0878
     42  N         -6.8390    8.5820   13.2420 N.3   171  ASP171     -0.1225
     43  CA        -5.5710    9.1590   13.6750 C.3   171  ASP171      0.1805
     44  C         -5.5720    9.3800   15.1840 C.2   171  ASP171      0.2598
     45  O         -6.6110    9.2680   15.8320 O.2   171  ASP171     -0.2718
     46  CB        -5.4340   10.5200   12.9660 C.3   171  ASP171      0.1424
     47  CG        -4.0450   11.1250   13.0500 C.2   171  ASP171      0.3668
     48  OD1       -3.9340   12.3050   12.6620 O.co2 171  ASP171     -0.2456
     49  OD2       -3.0790   10.4550   13.4520 O.co2 171  ASP171     -0.2456
     50  N         -4.3920    9.6110   15.7560 N.am  172  SER172     -0.1938
     51  CA        -4.2990    9.9390   17.1740 C.3   172  SER172      0.2055
     52  C         -4.6660   11.4340   17.1930 C.2   172  SER172      0.2643
     53  O         -4.7780   12.0650   16.1390 O.2   172  SER172     -0.2714
     54  CB        -2.8870    9.6810   17.7300 C.3   172  SER172      0.2130
     55  OG        -1.8790   10.1450   16.8490 O.3   172  SER172     -0.2179
     56  N         -4.8420   12.0110   18.3720 N.am  173  CYS173     -0.1953
     57  CA        -5.2500   13.4060   18.4460 C.3   173  CYS173      0.1843
     58  C         -4.8210   14.0240   19.7700 C.2   173  CYS173      0.2625
     59  O         -4.0790   13.4090   20.5290 O.2   173  CYS173     -0.2714
     60  CB        -6.7760   13.4850   18.2520 C.3   173  CYS173      0.0997
     61  SG        -7.4820   15.1030   17.7860 S.3   173  CYS173     -0.0797
     62  N         -5.2930   15.2370   20.0310 N.am  174  GLN174     -0.1977
     63  CA        -4.9640   15.9510   21.2530 C.3   174  GLN174      0.1601
     64  C         -5.3470   15.1060   22.4610 C.2   174  GLN174      0.2287
     65  O         -6.4760   14.5950   22.5390 O.2   174  GLN174     -0.2864
     66  CB        -5.7180   17.2780   21.2940 C.3   174  GLN174      0.0394
     67  CG        -5.7040   18.0380   20.0030 C.3   174  GLN174      0.0908
     68  CD        -7.1110   18.4100   19.5100 C.2   174  GLN174      0.2608
     69  OE1       -8.0370   18.5120   20.2970 O.2   174  GLN174     -0.2717
     70  NE2       -7.2740   18.5760   18.2110 N.am  174  GLN174     -0.0878
     71  N         -1.0850   12.4500   23.2010 N.3   177  SER177     -0.1217
     72  CA         0.3320   12.7970   23.3100 C.3   177  SER177      0.1889
     73  C          1.0610   11.9220   24.3140 C.2   177  SER177      0.2288
     74  O          0.5430   11.6590   25.3940 O.2   177  SER177     -0.2866
     75  CB         0.4720   14.2580   23.7320 C.3   177  SER177      0.2089
     76  OG         0.1200   15.1300   22.6700 O.3   177  SER177     -0.2183
     77  N          3.2600    9.0500   20.4050 N.3   191  VAL191     -0.1231
     78  CA         2.3950   10.0540   19.7860 C.3   191  VAL191      0.1692
     79  C          3.0650   11.4110   19.9860 C.2   191  VAL191      0.2593
     80  O          3.2550   11.8600   21.1210 O.2   191  VAL191     -0.2718
     81  CB         0.9890   10.0400   20.4240 C.3   191  VAL191      0.0266
     82  CG1        0.0940   11.0850   19.7800 C.3   191  VAL191      0.0020
     83  CG2        0.3730    8.6510   20.2890 C.3   191  VAL191      0.0020
     84  N          3.4350   12.0460   18.8800 N.am  192  SER192     -0.1938
     85  CA         4.1440   13.3150   18.9230 C.3   192  SER192      0.2055
     86  C          3.3790   14.5150   18.3630 C.2   192  SER192      0.2643
     87  O          3.0160   15.4200   19.1160 O.2   192  SER192     -0.2714
     88  CB         5.4920   13.1610   18.2080 C.3   192  SER192      0.2130
     89  OG         6.2830   14.3300   18.3170 O.3   192  SER192     -0.2179
     90  N          3.1400   14.5300   17.0540 N.am  193  TRP193     -0.1959
     91  CA         2.4370   15.6480   16.4330 C.3   193  TRP193      0.1771
     92  C          1.8090   15.3030   15.0880 C.2   193  TRP193      0.2620
     93  O          1.9650   14.2010   14.5750 O.2   193  TRP193     -0.2715
     94  CB         3.3890   16.8300   16.2490 C.3   193  TRP193      0.0590
     95  CG         4.5080   16.5600   15.2790 C.ar  193  TRP193      0.0006
     96  CD1        5.6800   15.9010   15.5380 C.ar  193  TRP193      0.0946
     97  CD2        4.5830   16.9810   13.9110 C.ar  193  TRP193      0.0152
     98  NE1        6.4800   15.8960   14.4190 N.ar  193  TRP193     -0.2442
     99  CE2        5.8340   16.5560   13.4040 C.ar  193  TRP193      0.0810
    100  CE3        3.7140   17.6830   13.0600 C.ar  193  TRP193      0.0012
    101  CZ2        6.2360   16.8060   12.0900 C.ar  193  TRP193      0.0191
    102  CZ3        4.1140   17.9280   11.7550 C.ar  193  TRP193      0.0001
    103  CH2        5.3650   17.4940   11.2820 C.ar  193  TRP193      0.0015
    104  N          1.0810   16.2620   14.5340 N.am  194  GLY194     -0.1940
    105  CA         0.4370   16.0710   13.2530 C.3   194  GLY194      0.2014
    106  C         -0.2700   17.3640   12.9180 C.2   194  GLY194      0.2640
    107  O         -0.4460   18.2110   13.7960 O.2   194  GLY194     -0.2714
    108  N         -0.6390   17.5480   11.6590 N.am  195  SER195     -0.1935
    109  CA        -1.3330   18.7650   11.2630 C.3   195  SER195      0.2055
    110  C         -2.8190   18.5420   11.5510 C.2   195  SER195      0.2644
    111  O         -3.5540   18.0000   10.7230 O.2   195  SER195     -0.2714
    112  CB        -1.0820   19.0420    9.7820 C.3   195  SER195      0.2130
    113  OG        -1.3400   20.3910    9.4690 O.3   195  SER195     -0.2179
    114  N         -3.2520   18.9380   12.7440 N.am  196  GLY196     -0.1939
    115  CA        -4.6330   18.7290   13.1240 C.3   196  GLY196      0.2014
    116  C         -4.7950   17.2420   13.3930 C.2   196  GLY196      0.2639
    117  O         -3.8070   16.5470   13.6770 O.2   196  GLY196     -0.2714
    118  N         -6.0170   16.7370   13.2700 N.am  197  CYS197     -0.1967
    119  CA        -6.2820   15.3240   13.5040 C.3   197  CYS197      0.1712
    120  C         -7.0890   14.7050   12.3880 C.2   197  CYS197      0.2296
    121  O         -8.1060   15.2520   11.9630 O.2   197  CYS197     -0.2864
    122  CB        -7.0670   15.1270   14.7970 C.3   197  CYS197      0.0983
    123  SG        -6.2720   15.7540   16.2990 S.3   197  CYS197     -0.0798
    124  N         -2.5570   14.2410    5.9350 N.3   202  LYS202     -0.1231
    125  CA        -1.8180   14.7050    7.1010 C.3   202  LYS202      0.1678
    126  C         -1.8690   13.6460    8.1950 C.2   202  LYS202      0.2434
    127  O         -2.6200   13.7700    9.1560 O.2   202  LYS202     -0.2733
    128  CB        -2.4000   16.0270    7.6040 C.3   202  LYS202      0.0284
    129  CG        -2.2070   17.1890    6.6420 C.3   202  LYS202      0.0035
    130  CD        -0.7250   17.4980    6.4340 C.3   202  LYS202      0.0206
    131  CE        -0.5230   18.6990    5.5190 C.3   202  LYS202      0.1093
    132  NZ         0.9010   19.1300    5.4570 N.3   202  LYS202     -0.1314
    133  N         -1.0870   12.5690    8.0330 N.am  203  PRO203     -0.2718
    134  CA        -1.0240   11.4620    8.9990 C.3   203  PRO203      0.1535
    135  C         -0.3290   11.8580   10.2980 C.2   203  PRO203      0.2599
    136  O          0.2420   12.9380   10.3960 O.2   203  PRO203     -0.2715
    137  CB        -0.2270   10.4050    8.2350 C.3   203  PRO203      0.0310
    138  CG         0.7310   11.2400    7.4490 C.3   203  PRO203      0.0237
    139  CD        -0.1470   12.3460    6.9220 C.3   203  PRO203      0.0939
    140  N         -0.3750   10.9800   11.2960 N.am  204  GLY204     -0.1941
    141  CA         0.2670   11.2780   12.5590 C.3   204  GLY204      0.2014
    142  C          1.7650   11.0680   12.4770 C.2   204  GLY204      0.2639
    143  O          2.2360   10.1610   11.7820 O.2   204  GLY204     -0.2714
    144  N          2.5120   11.9220   13.1660 N.am  205  VAL205     -0.1963
    145  CA         3.9650   11.8400   13.1980 C.3   205  VAL205      0.1727
    146  C          4.3360   11.3380   14.5880 C.2   205  VAL205      0.2616
    147  O          3.8360   11.8400   15.6020 O.2   205  VAL205     -0.2715
    148  CB         4.6210   13.2010   12.9140 C.3   205  VAL205      0.0290
    149  CG1        6.1300   13.0400   12.7760 C.3   205  VAL205      0.0023
    150  CG2        4.0260   13.8040   11.6530 C.3   205  VAL205      0.0023
    151  N          5.1720   10.3070   14.6200 N.am  206  TYR206     -0.1974
    152  CA         5.5790    9.6710   15.8590 C.3   206  TYR206      0.1639
    153  C          7.0900    9.6530   16.0850 C.2   206  TYR206      0.2290
    154  O          7.8730    9.6180   15.1340 O.2   206  TYR206     -0.2864
    155  CB         5.0360    8.2370   15.8700 C.3   206  TYR206      0.0560
    156  CG         3.5380    8.1690   15.6970 C.ar  206  TYR206     -0.0198
    157  CD1        2.7010    8.1870   16.8000 C.ar  206  TYR206     -0.0009
    158  CD2        2.9580    8.1390   14.4280 C.ar  206  TYR206     -0.0009
    159  CE1        1.3190    8.1820   16.6610 C.ar  206  TYR206      0.0417
    160  CE2        1.5710    8.1400   14.2700 C.ar  206  TYR206      0.0417
    161  CZ         0.7580    8.1610   15.3990 C.ar  206  TYR206      0.1957
    162  OH        -0.6130    8.1800   15.2940 O.3   206  TYR206     -0.2866
@<TRIPOS>BOND
     1   132   131    1
     2   131   130    1
     3   124   125    1
     4   130   129    1
     5   129   128    1
     6   139   138    1
     7   139   133    1
     8   125   128    1
     9   125   126    1
    10    40    39    2
    11    33    34    1
    12   138   137    1
    13   133   126   am
    14   133   134    1
    15   126   127    2
    16   137   134    1
    17    39    38    1
    18    39    41   am
    19    38    37    1
    20    34    37    1
    21    34    35    1
    22   134   135    1
    23    35    36    2
    24   113   112    1
    25   112   109    1
    26   135   136    2
    27   135   140   am
    28   111   110    2
    29   109   110    1
    30   109   108    1
    31   103   102   ar
    32   103   101   ar
    33   140   141    1
    34   110   114   am
    35   150   148    1
    36   108   106   am
    37   102   100   ar
    38   143   142    2
    39   121   120    2
    40   101    99   ar
    41   120   119    1
    42   142   141    1
    43   142   144   am
    44    48    47   ar
    45   114   115    1
    46   149   148    1
    47   148   145    1
    48   106   105    1
    49   106   107    2
    50    46    47    1
    51    46    43    1
    52    47    49   ar
    53   100    97   ar
    54   115   116    1
    55   144   145    1
    56   145   146    1
    57    42    43    1
    58   105   104    1
    59   118   116   am
    60   118   119    1
    61   116   117    2
    62    99    97   ar
    63    99    98   ar
    64   119   122    1
    65    43    44    1
    66    97    95   ar
    67   160   158   ar
    68   160   161   ar
    69    98    96   ar
    70   158   156   ar
    71   104    92   am
    72    93    92    2
    73   146   151   am
    74   146   147    2
    75   151   152    1
    76   122   123    1
    77    92    91    1
    78   154   153    2
    79    44    50   am
    80    44    45    2
    81    95    96   ar
    82    95    94    1
    83   162   161    1
    84   161   159   ar
    85   156   155    1
    86   156   157   ar
    87    50    51    1
    88   152   155    1
    89   152   153    1
    90    20    19    2
    91    53    52    2
    92    94    91    1
    93   123    61    1
    94    91    90    1
    95   159   157   ar
    96    19    18    1
    97    55    54    1
    98    90    86   am
    99    51    52    1
   100    51    54    1
   101    52    56   am
   102    25    26    1
   103    31    30    1
   104    21    18    1
   105    21    22    1
   106    29    26    1
   107    29    30    1
   108    27    28    2
   109    27    26    1
   110    61    60    1
   111    18    17    1
   112    30    32    1
   113    88    89    1
   114    88    85    1
   115    70    68   am
   116    60    57    1
   117    86    85    1
   118    86    87    2
   119    56    57    1
   120    57    58    1
   121    22    23    2
   122    22    24   am
   123    84    85    1
   124    84    79   am
   125    17    13   am
   126    68    67    1
   127    68    69    2
   128    58    62   am
   129    58    59    2
   130    82    81    1
   131    78    79    1
   132    78    77    1
   133    78    81    1
   134    14    13    2
   135    13    12    1
   136    79    80    2
   137    67    66    1
   138    62    63    1
   139    83    81    1
   140    11    12    1
   141    12    15    1
   142    63    66    1
   143    63    64    1
   144     9     7   ar
   145     9    10   ar
   146     7     6   ar
   147    16    15    1
   148    64    65    2
   149    76    75    1
   150    10     8   ar
   151    71    72    1
   152     6     8   ar
   153     6     5    1
   154    72    75    1
   155    72    73    1
   156     5     2    1
   157    73    74    2
   158     1     2    1
   159     2     3    1
   160     3     4    2
