@<TRIPOS>MOLECULE
tmp/1k1oA00.pdb
 157 155 0 0 0
SMALL
GASTEIGER

@<TRIPOS>ATOM
      1  N         36.4500   23.7070   45.3310 N.3    40  HIS40      -0.1241
      2  CA        37.3780   24.8010   45.6090 C.3    40  HIS40       0.1621
      3  C         38.4310   24.9630   44.5200 C.2    40  HIS40       0.2264
      4  O         39.2000   25.9140   44.5330 O.2    40  HIS40      -0.2867
      5  CB        38.0140   24.6680   47.0120 C.3    40  HIS40       0.0745
      6  CG        39.1030   23.6390   47.1110 C.ar   40  HIS40       0.0817
      7  ND1       38.9400   22.4450   47.7900 N.ar   40  HIS40      -0.2268
      8  CD2       40.3880   23.6500   46.6840 C.ar   40  HIS40       0.1154
      9  CE1       40.0720   21.7710   47.7660 C.ar   40  HIS40       0.1986
     10  NE2       40.9640   22.4710   47.1050 N.ar   40  HIS40      -0.2212
     11  N         31.7660   27.6350   50.4760 N.3    78  SER78      -0.1202
     12  CA        33.1830   27.9980   50.4580 C.3    78  SER78       0.2020
     13  C         33.7770   28.3060   51.8250 C.2    78  SER78       0.2619
     14  O         34.9920   28.1840   52.0150 O.2    78  SER78      -0.2717
     15  CB        33.4470   29.1720   49.5070 C.3    78  SER78       0.2103
     16  OG        32.7700   30.3460   49.9110 O.3    78  SER78      -0.2182
     17  N         32.9370   28.6850   52.7820 N.am   79  ASN79      -0.1960
     18  CA        33.4380   28.9990   54.1130 C.3    79  ASN79       0.1819
     19  C         33.8140   27.7640   54.9190 C.2    79  ASN79       0.2622
     20  O         34.7670   27.8000   55.6870 O.2    79  ASN79      -0.2715
     21  CB        32.4250   29.8390   54.9030 C.3    79  ASN79       0.1195
     22  CG        32.3380   31.2710   54.4090 C.2    79  ASN79       0.2630
     23  OD1       31.2460   31.8360   54.3090 O.2    79  ASN79      -0.2716
     24  ND2       33.4870   31.8680   54.1010 N.am   79  ASN79      -0.0877
     25  N         33.0980   26.6630   54.7230 N.am   80  THR80      -0.1937
     26  CA        33.3590   25.4340   55.4760 C.3    80  THR80       0.2028
     27  C         33.8890   24.2700   54.6370 C.2    80  THR80       0.2642
     28  O         34.4020   23.2830   55.1740 O.2    80  THR80      -0.2714
     29  CB        32.0670   24.9580   56.1760 C.3    80  THR80       0.1808
     30  OG1       31.0730   24.6660   55.1910 O.3    80  THR80      -0.2208
     31  CG2       31.5430   26.0460   57.1240 C.3    80  THR80       0.0379
     32  N         33.7380   24.3930   53.3230 N.am   81  LEU81      -0.1977
     33  CA        34.1540   23.3760   52.3620 C.3    81  LEU81       0.1596
     34  C         33.2580   22.1440   52.3990 C.2    81  LEU81       0.2287
     35  O         33.6510   21.0530   51.9980 O.2    81  LEU81      -0.2864
     36  CB        35.6350   23.0230   52.5220 C.3    81  LEU81       0.0297
     37  CG        36.5650   23.7470   51.5350 C.3    81  LEU81       0.0022
     38  CD1       36.2310   25.2250   51.4360 C.3    81  LEU81       0.0001
     39  CD2       38.0180   23.5450   51.9410 C.3    81  LEU81       0.0001
     40  N         33.7630   21.1290   62.8760 N.3   155  GLN155     -0.1245
     41  CA        34.0580   21.4040   61.4680 C.3   155  GLN155      0.1566
     42  C         33.7560   20.2510   60.5150 C.2   155  GLN155      0.2260
     43  O         33.7580   20.4340   59.2950 O.2   155  GLN155     -0.2867
     44  CB        35.5290   21.7800   61.3040 C.3   155  GLN155      0.0367
     45  CG        35.9610   23.0040   62.0760 C.3   155  GLN155      0.0905
     46  CD        37.4110   23.3530   61.8210 C.2   155  GLN155      0.2608
     47  OE1       37.7270   24.1510   60.9390 O.2   155  GLN155     -0.2717
     48  NE2       38.3030   22.7500   62.5880 N.am  155  GLN155     -0.0878
     49  N         50.5860   12.4610   54.5660 N.3   171  ASP171     -0.1225
     50  CA        49.3250   13.1640   54.3600 C.3   171  ASP171      0.1805
     51  C         49.3160   13.7840   52.9620 C.2   171  ASP171      0.2598
     52  O         50.3140   13.7350   52.2380 O.2   171  ASP171     -0.2718
     53  CB        49.2370   14.2730   55.4280 C.3   171  ASP171      0.1424
     54  CG        47.8820   14.9660   55.4890 C.2   171  ASP171      0.3668
     55  OD1       47.8110   16.0180   56.1570 O.co2 171  ASP171     -0.2456
     56  OD2       46.8980   14.4730   54.9050 O.co2 171  ASP171     -0.2456
     57  N         48.1590   14.2690   52.5370 N.am  172  SER172     -0.1938
     58  CA        48.0480   14.9520   51.2580 C.3   172  SER172      0.2055
     59  C         48.5370   16.3790   51.5760 C.2   172  SER172      0.2643
     60  O         48.8280   16.6850   52.7370 O.2   172  SER172     -0.2714
     61  CB        46.5850   14.9450   50.7850 C.3   172  SER172      0.2130
     62  OG        45.6990   15.3590   51.8100 O.3   172  SER172     -0.2179
     63  N         48.6430   17.2510   50.5820 N.am  173  CYS173     -0.1953
     64  CA        49.1170   18.6100   50.8470 C.3   173  CYS173      0.1843
     65  C         48.7040   19.5430   49.7060 C.2   173  CYS173      0.2625
     66  O         48.0360   19.1070   48.7640 O.2   173  CYS173     -0.2714
     67  CB        50.6450   18.6060   51.0140 C.3   173  CYS173      0.0997
     68  SG        51.3360   20.0440   51.8940 S.3   173  CYS173     -0.0797
     69  N         49.0730   20.8210   49.8110 N.am  174  GLN174     -0.1977
     70  CA        48.7630   21.8320   48.7940 C.3   174  GLN174      0.1601
     71  C         49.1760   21.3300   47.4250 C.2   174  GLN174      0.2287
     72  O         50.3010   20.8720   47.2480 O.2   174  GLN174     -0.2864
     73  CB        49.4820   23.1610   49.1030 C.3   174  GLN174      0.0394
     74  CG        48.7710   24.0400   50.1470 C.3   174  GLN174      0.0908
     75  CD        48.7010   23.3860   51.5250 C.2   174  GLN174      0.2608
     76  OE1       47.6410   22.9020   51.9620 O.2   174  GLN174     -0.2717
     77  NE2       49.8450   23.3500   52.1990 N.am  174  GLN174     -0.0878
     78  N         44.8760   18.9180   45.9620 N.3   177  SER177     -0.1217
     79  CA        43.4550   19.2490   45.9030 C.3   177  SER177      0.1889
     80  C         42.7200   18.6750   44.7050 C.2   177  SER177      0.2288
     81  O         43.2400   18.7080   43.5890 O.2   177  SER177     -0.2866
     82  CB        43.2810   20.7680   45.8890 C.3   177  SER177      0.2089
     83  OG        43.4940   21.3430   47.1700 O.3   177  SER177     -0.2183
     84  N         40.4630   14.9110   47.6420 N.3   191  VAL191     -0.1231
     85  CA        41.3290   15.7070   48.5220 C.3   191  VAL191      0.1692
     86  C         40.6730   17.0650   48.7180 C.2   191  VAL191      0.2593
     87  O         40.5260   17.8350   47.7650 O.2   191  VAL191     -0.2718
     88  CB        42.7490   15.8760   47.9280 C.3   191  VAL191      0.0266
     89  CG1       43.6360   16.7080   48.8780 C.3   191  VAL191      0.0020
     90  CG2       43.3790   14.5090   47.6700 C.3   191  VAL191      0.0020
     91  N         40.2840   17.3590   49.9520 N.am  192  SER192     -0.1938
     92  CA        39.5880   18.6050   50.2330 C.3   192  SER192      0.2055
     93  C         40.3490   19.6320   51.0520 C.2   192  SER192      0.2643
     94  O         40.7470   20.6750   50.5270 O.2   192  SER192     -0.2714
     95  CB        38.2420   18.2850   50.8900 C.3   192  SER192      0.2130
     96  OG        37.4190   19.4290   51.0020 O.3   192  SER192     -0.2179
     97  N         40.5440   19.3560   52.3340 N.am  193  TRP193     -0.1959
     98  CA        41.2410   20.2930   53.2010 C.3   193  TRP193      0.1771
     99  C         41.9700   19.6110   54.3460 C.2   193  TRP193      0.2620
    100  O         41.9970   18.3820   54.4490 O.2   193  TRP193     -0.2715
    101  CB        40.2780   21.3580   53.7580 C.3   193  TRP193      0.0590
    102  CG        39.1110   20.8380   54.5850 C.ar  193  TRP193      0.0006
    103  CD1       37.9370   20.3320   54.1090 C.ar  193  TRP193      0.0946
    104  CD2       39.0200   20.7880   56.0230 C.ar  193  TRP193      0.0152
    105  NE1       37.1270   19.9570   55.1530 N.ar  193  TRP193     -0.2442
    106  CE2       37.7550   20.2330   56.3400 C.ar  193  TRP193      0.0810
    107  CE3       39.8690   21.1530   57.0780 C.ar  193  TRP193      0.0012
    108  CZ2       37.3260   20.0340   57.6600 C.ar  193  TRP193      0.0191
    109  CZ3       39.4420   20.9480   58.3990 C.ar  193  TRP193      0.0001
    110  CH2       38.1810   20.3960   58.6710 C.ar  193  TRP193      0.0015
    111  N         42.5980   20.4270   55.1820 N.am  194  GLY194     -0.1940
    112  CA        43.3250   19.9290   56.3260 C.3   194  GLY194      0.2014
    113  C         43.9620   21.1050   57.0270 C.2   194  GLY194      0.2640
    114  O         43.7260   22.2480   56.6630 O.2   194  GLY194     -0.2714
    115  N         44.7390   20.8270   58.0650 N.am  195  SER195     -0.1935
    116  CA        45.4250   21.8740   58.8030 C.3   195  SER195      0.2055
    117  C         46.8980   21.5520   58.6500 C.2   195  SER195      0.2644
    118  O         47.4230   20.6690   59.3350 O.2   195  SER195     -0.2714
    119  CB        45.0040   21.8590   60.2730 C.3   195  SER195      0.2130
    120  OG        45.5960   22.9260   60.9930 O.3   195  SER195     -0.2179
    121  N         47.5440   22.2400   57.7130 N.am  196  GLY196     -0.1939
    122  CA        48.9440   21.9890   57.4320 C.3   196  GLY196      0.2014
    123  C         49.0390   20.6560   56.7150 C.2   196  GLY196      0.2639
    124  O         48.0460   20.1650   56.1660 O.2   196  GLY196     -0.2714
    125  N         50.2230   20.0500   56.7230 N.am  197  CYS197     -0.1967
    126  CA        50.4120   18.7570   56.0800 C.3   197  CYS197      0.1712
    127  C         51.2690   17.8460   56.9500 C.2   197  CYS197      0.2296
    128  O         52.2930   18.2720   57.4860 O.2   197  CYS197     -0.2864
    129  CB        51.0840   18.9260   54.7150 C.3   197  CYS197      0.0983
    130  SG        50.2580   20.1140   53.6080 S.3   197  CYS197     -0.0798
    131  N         46.4460   15.9900   62.9720 N.3   202  LYS202     -0.1231
    132  CA        45.7830   16.8020   61.9500 C.3   202  LYS202      0.1678
    133  C         45.7670   16.0650   60.6150 C.2   202  LYS202      0.2434
    134  O         46.4980   16.4210   59.6900 O.2   202  LYS202     -0.2733
    135  CB        46.4930   18.1570   61.7860 C.3   202  LYS202      0.0284
    136  CG        46.3660   19.0990   62.9730 C.3   202  LYS202      0.0035
    137  CD        44.9230   19.5400   63.1880 C.3   202  LYS202      0.0206
    138  CE        44.7980   20.4370   64.4110 C.3   202  LYS202      0.1093
    139  NZ        43.4350   21.0180   64.5450 N.3   202  LYS202     -0.1314
    140  N         44.9520   15.0010   60.5060 N.am  203  PRO203     -0.2718
    141  CA        44.8500   14.2080   59.2740 C.3   203  PRO203      0.1535
    142  C         44.1580   14.9800   58.1520 C.2   203  PRO203      0.2599
    143  O         43.6080   16.0520   58.3740 O.2   203  PRO203     -0.2715
    144  CB        44.0170   13.0110   59.7170 C.3   203  PRO203      0.0310
    145  CG        43.0970   13.6150   60.7190 C.3   203  PRO203      0.0237
    146  CD        44.0240   14.4840   61.5290 C.3   203  PRO203      0.0939
    147  N         44.2060   14.4420   56.9420 N.am  204  GLY204     -0.1941
    148  CA        43.5560   15.1060   55.8290 C.3   204  GLY204      0.2014
    149  C         42.0610   14.8530   55.8730 C.2   204  GLY204      0.2638
    150  O         41.6120   13.8220   56.3800 O.2   204  GLY204     -0.2714
    151  N         41.2940   15.7890   55.3310 N.am  205  VAL205     -0.1977
    152  CA        39.8490   15.6860   55.2880 C.3   205  VAL205      0.1596
    153  C         39.4710   15.5520   53.8260 C.2   205  VAL205      0.2287
    154  O         40.0240   16.2480   52.9640 O.2   205  VAL205     -0.2864
    155  CB        39.1800   16.9260   55.9050 C.3   205  VAL205      0.0276
    156  CG1       37.6710   16.7610   55.9100 C.3   205  VAL205      0.0022
    157  CG2       39.6830   17.1290   57.3190 C.3   205  VAL205      0.0022
@<TRIPOS>BOND
     1    81    80    2
     2     3     4    2
     3     3     2    1
     4    80    79    1
     5     1     2    1
     6     2     5    1
     7    82    79    1
     8    82    83    1
     9    79    78    1
    10     8    10   ar
    11     8     6   ar
    12     5     6    1
    13    10     9   ar
    14     6     7   ar
    15    72    71    2
    16    71    70    1
    17    84    85    1
    18    90    88    1
    19    87    86    2
    20     9     7   ar
    21    88    85    1
    22    88    89    1
    23    85    86    1
    24    86    91   am
    25    66    65    2
    26    70    73    1
    27    70    69    1
    28    73    74    1
    29    15    16    1
    30    15    12    1
    31    65    69   am
    32    65    64    1
    33    91    92    1
    34    74    75    1
    35    92    95    1
    36    92    93    1
    37    12    11    1
    38    12    13    1
    39    94    93    2
    40    63    64    1
    41    63    59   am
    42    61    58    1
    43    61    62    1
    44    64    67    1
    45    95    96    1
    46    67    68    1
    47    93    97   am
    48    58    59    1
    49    58    57    1
    50    38    37    1
    51    75    76    2
    52    75    77   am
    53    37    39    1
    54    37    36    1
    55    59    60    2
    56    13    14    2
    57    13    17   am
    58    68   130    1
    59    35    34    2
    60    52    51    2
    61    97    98    1
    62    33    34    1
    63    33    36    1
    64    33    32    1
    65    57    51   am
    66    17    18    1
    67    51    50    1
    68   154   153    2
    69    98   101    1
    70    98    99    1
    71    32    27   am
    72   130   129    1
    73   101   102    1
    74   153   152    1
    75    24    22   am
    76   103   102   ar
    77   103   105   ar
    78    18    21    1
    79    18    19    1
    80    23    22    2
    81    99   100    2
    82    99   111   am
    83    50    49    1
    84    50    53    1
    85    22    21    1
    86   102   104   ar
    87    27    28    2
    88    27    26    1
    89   129   126    1
    90    25    19   am
    91    25    26    1
    92    56    54   ar
    93    19    20    2
    94   105   106   ar
    95   111   112    1
    96    30    29    1
    97   152   151    1
    98   152   155    1
    99   151   149   am
   100    53    54    1
   101    26    29    1
   102    54    55   ar
   103   148   149    1
   104   148   147    1
   105   149   150    2
   106   155   156    1
   107   155   157    1
   108   104   106   ar
   109   104   107   ar
   110   126   125    1
   111   126   127    1
   112   124   123    2
   113    29    31    1
   114   112   113    1
   115   106   108   ar
   116   114   113    2
   117   123   125   am
   118   123   122    1
   119   147   142   am
   120   127   128    2
   121   113   115   am
   122   107   109   ar
   123   122   121    1
   124   108   110   ar
   125   121   117   am
   126   115   116    1
   127   142   143    2
   128   142   141    1
   129   109   110   ar
   130   117   116    1
   131   117   118    2
   132   116   119    1
   133   141   144    1
   134   141   140    1
   135    43    42    2
   136   134   133    2
   137   144   145    1
   138   119   120    1
   139   140   133   am
   140   140   146    1
   141    42    41    1
   142   133   132    1
   143   145   146    1
   144    47    46    2
   145    44    41    1
   146    44    45    1
   147    41    40    1
   148   135   132    1
   149   135   136    1
   150    46    45    1
   151    46    48   am
   152   132   131    1
   153   136   137    1
   154   137   138    1
   155   138   139    1
