@<TRIPOS>MOLECULE
tmp/1k1pA00.pdb
 155 151 0 0 0
SMALL
GASTEIGER

@<TRIPOS>ATOM
      1  N         36.5240   23.9500   45.6310 N.3    40  HIS40      -0.1241
      2  CA        37.4690   25.0130   45.9590 C.3    40  HIS40       0.1621
      3  C         38.5640   25.1490   44.8900 C.2    40  HIS40       0.2264
      4  O         39.4130   26.0420   44.9570 O.2    40  HIS40      -0.2867
      5  CB        38.0450   24.8860   47.3910 C.3    40  HIS40       0.0745
      6  CG        39.1760   23.8910   47.5150 C.ar   40  HIS40       0.0817
      7  ND1       38.9860   22.6290   48.0440 N.ar   40  HIS40      -0.2268
      8  CD2       40.4750   23.9580   47.1600 C.ar   40  HIS40       0.1154
      9  CE1       40.1240   21.9680   47.9950 C.ar   40  HIS40       0.1986
     10  NE2       41.0470   22.7390   47.4750 N.ar   40  HIS40      -0.2212
     11  N         31.8730   27.7850   50.7290 N.3    78  SER78      -0.1202
     12  CA        33.2870   28.1330   50.6860 C.3    78  SER78       0.2020
     13  C         33.9270   28.4330   52.0310 C.2    78  SER78       0.2619
     14  O         35.1480   28.5030   52.1210 O.2    78  SER78      -0.2717
     15  CB        33.5130   29.3190   49.7500 C.3    78  SER78       0.2103
     16  OG        32.8490   30.4750   50.2320 O.3    78  SER78      -0.2182
     17  N         33.1230   28.6480   53.0640 N.am   79  ASN79      -0.1960
     18  CA        33.6790   28.9410   54.3820 C.3    79  ASN79       0.1819
     19  C         34.0380   27.6810   55.1520 C.2    79  ASN79       0.2622
     20  O         35.0690   27.6300   55.8180 O.2    79  ASN79      -0.2715
     21  CB        32.7050   29.7750   55.2190 C.3    79  ASN79       0.1195
     22  CG        32.5550   31.1920   54.7090 C.2    79  ASN79       0.2630
     23  OD1       31.4400   31.6540   54.4830 O.2    79  ASN79      -0.2716
     24  ND2       33.6700   31.8950   54.5410 N.am   79  ASN79      -0.0877
     25  N         33.1820   26.6690   55.0670 N.am   80  THR80      -0.1937
     26  CA        33.3940   25.4160   55.7850 C.3    80  THR80       0.2028
     27  C         33.8780   24.2640   54.9040 C.2    80  THR80       0.2642
     28  O         34.3570   23.2400   55.4040 O.2    80  THR80      -0.2714
     29  CB        32.0960   24.9800   56.4500 C.3    80  THR80       0.1808
     30  OG1       31.1000   24.7660   55.4420 O.3    80  THR80      -0.2208
     31  CG2       31.6080   26.0500   57.4050 C.3    80  THR80       0.0379
     32  N         33.7350   24.4370   53.5930 N.am   81  LEU81      -0.1977
     33  CA        34.1100   23.4300   52.6060 C.3    81  LEU81       0.1596
     34  C         33.1830   22.2130   52.6020 C.2    81  LEU81       0.2287
     35  O         33.5740   21.1080   52.2060 O.2    81  LEU81      -0.2864
     36  CB        35.5840   23.0270   52.7290 C.3    81  LEU81       0.0297
     37  CG        36.4800   23.7030   51.6830 C.3    81  LEU81       0.0022
     38  CD1       36.4000   25.2150   51.8010 C.3    81  LEU81       0.0001
     39  CD2       37.9130   23.2410   51.8380 C.3    81  LEU81       0.0001
     40  N         33.5550   20.9890   63.0260 N.3   155  GLN155     -0.1245
     41  CA        33.8470   21.3110   61.6340 C.3   155  GLN155      0.1566
     42  C         33.5950   20.1680   60.6600 C.2   155  GLN155      0.2260
     43  O         33.6140   20.3760   59.4480 O.2   155  GLN155     -0.2867
     44  CB        35.2980   21.7490   61.4920 C.3   155  GLN155      0.0367
     45  CG        35.6920   22.9090   62.3640 C.3   155  GLN155      0.0905
     46  CD        37.1410   23.2730   62.1780 C.2   155  GLN155      0.2608
     47  OE1       37.4760   24.1380   61.3690 O.2   155  GLN155     -0.2717
     48  NE2       38.0170   22.6130   62.9240 N.am  155  GLN155     -0.0878
     49  N         50.6190   12.4920   54.6130 N.3   171  ASP171     -0.1225
     50  CA        49.3610   13.2130   54.4220 C.3   171  ASP171      0.1805
     51  C         49.3330   13.8380   53.0300 C.2   171  ASP171      0.2598
     52  O         50.3510   13.8530   52.3380 O.2   171  ASP171     -0.2718
     53  CB        49.3230   14.3430   55.4680 C.3   171  ASP171      0.1424
     54  CG        47.9630   14.9910   55.6210 C.2   171  ASP171      0.3668
     55  OD1       47.8990   16.0070   56.3350 O.co2 171  ASP171     -0.2456
     56  OD2       46.9610   14.5020   55.0660 O.co2 171  ASP171     -0.2456
     57  N         48.1580   14.2910   52.5960 N.am  172  SER172     -0.1938
     58  CA        48.0490   15.0000   51.3290 C.3   172  SER172      0.2055
     59  C         48.4060   16.4500   51.6940 C.2   172  SER172      0.2643
     60  O         48.5330   16.7780   52.8790 O.2   172  SER172     -0.2714
     61  CB        46.6330   14.8940   50.7380 C.3   172  SER172      0.2130
     62  OG        45.6230   15.2440   51.6660 O.3   172  SER172     -0.2179
     63  N         48.5650   17.3210   50.7040 N.am  173  CYS173     -0.1953
     64  CA        48.9420   18.6980   50.9830 C.3   173  CYS173      0.1843
     65  C         48.4490   19.6180   49.8770 C.2   173  CYS173      0.2625
     66  O         47.7350   19.1820   48.9750 O.2   173  CYS173     -0.2714
     67  CB        50.4690   18.7740   51.1060 C.3   173  CYS173      0.0997
     68  SG        51.1070   20.2310   51.9870 S.3   173  CYS173     -0.0797
     69  N         48.8120   20.8930   49.9510 N.am  174  GLN174     -0.1977
     70  CA        48.4090   21.8570   48.9370 C.3   174  GLN174      0.1601
     71  C         48.9780   21.4350   47.5910 C.2   174  GLN174      0.2287
     72  O         50.1350   21.0410   47.4900 O.2   174  GLN174     -0.2864
     73  CB        48.8730   23.2570   49.3280 C.3   174  GLN174      0.0394
     74  CG        48.1270   23.7870   50.5440 C.3   174  GLN174      0.0908
     75  CD        48.8080   24.9720   51.1900 C.2   174  GLN174      0.2608
     76  OE1       49.9470   25.3100   50.8560 O.2   174  GLN174     -0.2717
     77  NE2       48.1280   25.5970   52.1450 N.am  174  GLN174     -0.0878
     78  N         44.8550   19.0690   45.9450 N.3   177  SER177     -0.1217
     79  CA        43.4270   19.4110   45.9260 C.3   177  SER177      0.1889
     80  C         42.6600   18.8550   44.7360 C.2   177  SER177      0.2288
     81  O         43.1300   18.9460   43.6050 O.2   177  SER177     -0.2866
     82  CB        43.2490   20.9270   45.9250 C.3   177  SER177      0.2089
     83  OG        43.5870   21.5040   47.1720 O.3   177  SER177     -0.2183
     84  N         40.4470   14.9910   47.6730 N.3   191  VAL191     -0.1231
     85  CA        41.3320   15.7630   48.5560 C.3   191  VAL191      0.1692
     86  C         40.7020   17.1440   48.7550 C.2   191  VAL191      0.2593
     87  O         40.6170   17.9330   47.8120 O.2   191  VAL191     -0.2718
     88  CB        42.7560   15.9020   47.9620 C.3   191  VAL191      0.0266
     89  CG1       43.6760   16.5700   48.9670 C.3   191  VAL191      0.0020
     90  CG2       43.3130   14.5290   47.5920 C.3   191  VAL191      0.0020
     91  N         40.2710   17.4250   49.9840 N.am  192  SER192     -0.1938
     92  CA        39.5780   18.6690   50.2970 C.3   192  SER192      0.2055
     93  C         40.3030   19.6890   51.1880 C.2   192  SER192      0.2643
     94  O         40.6690   20.7730   50.7220 O.2   192  SER192     -0.2714
     95  CB        38.2060   18.3210   50.8840 C.3   192  SER192      0.2130
     96  OG        37.4000   19.4670   51.0560 O.3   192  SER192     -0.2179
     97  N         40.5090   19.3570   52.4590 N.am  193  TRP193     -0.1959
     98  CA        41.1620   20.2910   53.3770 C.3   193  TRP193      0.1771
     99  C         41.9110   19.6350   54.5380 C.2   193  TRP193      0.2620
    100  O         42.1140   18.4210   54.5560 O.2   193  TRP193     -0.2715
    101  CB        40.1420   21.3090   53.9160 C.3   193  TRP193      0.0590
    102  CG        38.9930   20.7350   54.7170 C.ar  193  TRP193      0.0006
    103  CD1       37.8270   20.2160   54.2240 C.ar  193  TRP193      0.0946
    104  CD2       38.8550   20.7040   56.1520 C.ar  193  TRP193      0.0152
    105  NE1       36.9800   19.8840   55.2500 N.ar  193  TRP193     -0.2442
    106  CE2       37.5930   20.1800   56.4490 C.ar  193  TRP193      0.0810
    107  CE3       39.6970   21.0920   57.2120 C.ar  193  TRP193      0.0012
    108  CZ2       37.1240   20.0190   57.7610 C.ar  193  TRP193      0.0191
    109  CZ3       39.2360   20.9360   58.5150 C.ar  193  TRP193      0.0001
    110  CH2       37.9630   20.4030   58.7770 C.ar  193  TRP193      0.0015
    111  N         42.3560   20.4620   55.4800 N.am  194  GLY194     -0.1940
    112  CA        43.0790   19.9870   56.6460 C.3   194  GLY194      0.2014
    113  C         43.7440   21.1740   57.3180 C.2   194  GLY194      0.2640
    114  O         43.4130   22.3150   57.0060 O.2   194  GLY194     -0.2714
    115  N         44.6440   20.9090   58.2580 N.am  195  SER195     -0.1935
    116  CA        45.3730   21.9630   58.9600 C.3   195  SER195      0.2055
    117  C         46.8600   21.7290   58.6970 C.2   195  SER195      0.2644
    118  O         47.4460   20.7680   59.2070 O.2   195  SER195     -0.2714
    119  CB        45.0860   21.8980   60.4570 C.3   195  SER195      0.2130
    120  OG        45.6940   22.9850   61.1270 O.3   195  SER195     -0.2179
    121  N         47.4680   22.5970   57.8990 N.am  196  GLY196     -0.1939
    122  CA        48.8610   22.4060   57.5560 C.3   196  GLY196      0.2014
    123  C         48.9280   21.0950   56.7870 C.2   196  GLY196      0.2639
    124  O         47.9580   20.7100   56.1230 O.2   196  GLY196     -0.2714
    125  N         50.0410   20.3830   56.8890 N.am  197  CYS197     -0.1967
    126  CA        50.1830   19.1060   56.2030 C.3   197  CYS197      0.1712
    127  C         51.0400   18.1910   57.0520 C.2   197  CYS197      0.2296
    128  O         52.0590   18.6200   57.5950 O.2   197  CYS197     -0.2864
    129  CB        50.8510   19.2850   54.8410 C.3   197  CYS197      0.0983
    130  SG        49.9500   20.3210   53.6460 S.3   197  CYS197     -0.0798
    131  N         46.3510   16.0610   63.0960 N.3   202  LYS202     -0.1245
    132  CA        45.7000   16.9260   62.1200 C.3   202  LYS202      0.1561
    133  C         45.6620   16.1550   60.8010 C.2   202  LYS202      0.2260
    134  O         46.4310   16.4470   59.8830 O.2   202  LYS202     -0.2867
    135  CB        46.4800   18.2380   61.9490 C.3   202  LYS202      0.0271
    136  CG        46.4460   19.1750   63.1470 C.3   202  LYS202      0.0035
    137  CD        45.0240   19.6150   63.4600 C.3   202  LYS202      0.0206
    138  CE        44.9730   20.6090   64.6140 C.3   202  LYS202      0.1093
    139  NZ        43.5880   21.1450   64.8020 N.3   202  LYS202     -0.1314
    140  N         44.1380   14.4940   57.1450 N.3   204  GLY204     -0.1225
    141  CA        43.5080   15.1000   55.9890 C.3   204  GLY204      0.1811
    142  C         42.0110   14.8590   55.9580 C.2   204  GLY204      0.2280
    143  O         41.5350   13.7910   56.3620 O.2   204  GLY204     -0.2866
    144  N         38.5210   14.6910   53.6260 N.3   206  TYR206     -0.1241
    145  CA        38.1020   14.4110   52.2600 C.3   206  TYR206      0.1605
    146  C         36.5960   14.4400   52.0410 C.2   206  TYR206      0.2264
    147  O         35.8160   14.1420   52.9440 O.2   206  TYR206     -0.2867
    148  CB        38.6600   13.0420   51.8370 C.3   206  TYR206      0.0534
    149  CG        40.1620   12.9400   52.0030 C.ar  206  TYR206     -0.0201
    150  CD1       41.0210   13.2550   50.9500 C.ar  206  TYR206     -0.0009
    151  CD2       40.7270   12.5800   53.2270 C.ar  206  TYR206     -0.0009
    152  CE1       42.4090   13.2290   51.1130 C.ar  206  TYR206      0.0417
    153  CE2       42.1100   12.5500   53.4030 C.ar  206  TYR206      0.0417
    154  CZ        42.9450   12.8750   52.3440 C.ar  206  TYR206      0.1957
    155  OH        44.3040   12.8740   52.5260 O.3   206  TYR206     -0.2866
@<TRIPOS>BOND
     1    81    80    2
     2    80    79    1
     3     3     4    2
     4     3     2    1
     5     1     2    1
     6    82    79    1
     7    82    83    1
     8    79    78    1
     9     2     5    1
    10     8    10   ar
    11     8     6   ar
    12     5     6    1
    13    10     9   ar
    14    72    71    2
    15     6     7   ar
    16    71    70    1
    17    90    88    1
    18    84    85    1
    19    87    86    2
    20    88    85    1
    21    88    89    1
    22     9     7   ar
    23    85    86    1
    24    86    91   am
    25    70    73    1
    26    70    69    1
    27    66    65    2
    28    73    74    1
    29    15    16    1
    30    15    12    1
    31    65    69   am
    32    65    64    1
    33    91    92    1
    34    92    95    1
    35    92    93    1
    36    74    75    1
    37    12    11    1
    38    12    13    1
    39    63    64    1
    40    63    59   am
    41    94    93    2
    42    61    58    1
    43    61    62    1
    44    76    75    2
    45    95    96    1
    46   150   152   ar
    47   150   149   ar
    48    64    67    1
    49    67    68    1
    50   152   154   ar
    51    93    97   am
    52    75    77   am
    53    58    59    1
    54    58    57    1
    55    37    38    1
    56    37    39    1
    57    37    36    1
    58    59    60    2
    59   148   149    1
    60   148   145    1
    61    68   130    1
    62   149   151   ar
    63    13    14    2
    64    13    17   am
    65   146   145    1
    66   146   147    2
    67    35    34    2
    68   145   144    1
    69    52    51    2
    70   154   155    1
    71   154   153   ar
    72    97    98    1
    73    57    51   am
    74    34    33    1
    75    33    36    1
    76    33    32    1
    77    51    50    1
    78    17    18    1
    79   151   153   ar
    80    98   101    1
    81    98    99    1
    82    32    27   am
    83   130   129    1
    84   101   102    1
    85   103   102   ar
    86   103   105   ar
    87    18    19    1
    88    18    21    1
    89    50    49    1
    90    50    53    1
    91    23    22    2
    92    99   100    2
    93    99   111   am
    94    24    22   am
    95    22    21    1
    96   102   104   ar
    97   129   126    1
    98    27    28    2
    99    27    26    1
   100    56    54   ar
   101    25    19   am
   102    25    26    1
   103    19    20    2
   104   105   106   ar
   105    30    29    1
   106    53    54    1
   107   111   112    1
   108    54    55   ar
   109    26    29    1
   110   142   141    1
   111   142   143    2
   112   141   140    1
   113   124   123    2
   114   104   106   ar
   115   104   107   ar
   116   126   125    1
   117   126   127    1
   118   106   108   ar
   119    29    31    1
   120   112   113    1
   121   123   125   am
   122   123   122    1
   123   114   113    2
   124   127   128    2
   125   107   109   ar
   126   113   115   am
   127   122   121    1
   128   108   110   ar
   129   121   117   am
   130   115   116    1
   131   109   110   ar
   132   117   116    1
   133   117   118    2
   134   116   119    1
   135    43    42    2
   136   134   133    2
   137   119   120    1
   138    42    41    1
   139   133   132    1
   140    47    46    2
   141    44    41    1
   142    44    45    1
   143    41    40    1
   144   135   132    1
   145   135   136    1
   146   132   131    1
   147    46    45    1
   148    46    48   am
   149   136   137    1
   150   137   138    1
   151   138   139    1
