@<TRIPOS>MOLECULE
tmp/1k1tB00.pdb
 162 152 0 0 0
SMALL
GASTEIGER

@<TRIPOS>ATOM
      1  N         21.8660   34.3730   27.7010 N.3     8  ARG8       -0.1245
      2  CA        22.5470   33.5840   26.6510 C.3     8  ARG8        0.1563
      3  C         23.6040   32.6540   27.2410 C.2     8  ARG8        0.2260
      4  O         24.3960   33.0350   28.1190 O.2     8  ARG8       -0.2867
      5  CB        23.2280   34.5130   25.6370 C.3     8  ARG8        0.0307
      6  CG        22.1800   35.2630   24.8200 C.3     8  ARG8        0.0489
      7  CD        22.8650   36.2380   23.8780 C.3     8  ARG8        0.2205
      8  NE        21.8820   36.7430   22.9090 N.pl3   8  ARG8       -0.0865
      9  CZ        22.1320   37.8360   22.2010 C.cat   8  ARG8        0.5346
     10  NH1       23.2910   38.4660   22.4100 N.pl3   8  ARG8        0.1354
     11  NH2       21.2600   38.2750   21.3200 N.pl3   8  ARG8        0.1354
     12  N         28.6910   31.2740   21.9910 N.3    23  LEU23      -0.1245
     13  CA        27.3450   30.8630   22.3830 C.3    23  LEU23       0.1561
     14  C         27.0970   29.3680   22.1520 C.2    23  LEU23       0.2260
     15  O         27.2860   28.8930   21.0290 O.2    23  LEU23      -0.2867
     16  CB        26.3920   31.7120   21.5380 C.3    23  LEU23       0.0270
     17  CG        24.8920   31.5310   21.7780 C.3    23  LEU23       0.0019
     18  CD1       24.4840   32.0770   23.1320 C.3    23  LEU23       0.0001
     19  CD2       24.0980   32.2290   20.6880 C.3    23  LEU23       0.0001
     20  N         24.9120   26.6340   21.0590 N.3    25  ASP25      -0.1239
     21  CA        23.7580   26.7470   20.2060 C.3    25  ASP25       0.1674
     22  C         23.2710   25.3830   19.7340 C.2    25  ASP25       0.2266
     23  O         23.7550   24.8340   18.7440 O.2    25  ASP25      -0.2867
     24  CB        24.1130   27.6600   19.0140 C.3    25  ASP25       0.1410
     25  CG        22.9010   28.0000   18.2220 C.2    25  ASP25       0.3668
     26  OD1       21.8070   27.4440   18.4670 O.co2  25  ASP25      -0.2456
     27  OD2       22.9490   28.7630   17.2340 O.co2  25  ASP25      -0.2456
     28  N         20.6130   24.7690   18.2380 N.3    27  GLY27      -0.1210
     29  CA        20.0270   24.9380   16.9560 C.3    27  GLY27       0.1956
     30  C         20.9960   25.1320   15.8100 C.2    27  GLY27       0.2612
     31  O         20.6270   25.3730   14.6650 O.2    27  GLY27      -0.2717
     32  N         22.3150   24.9810   16.0900 N.am   28  ALA28      -0.1965
     33  CA        23.3320   25.0710   15.0490 C.3    28  ALA28       0.1728
     34  C         23.8700   23.6870   14.7540 C.2    28  ALA28       0.2616
     35  O         24.3460   23.0150   15.6860 O.2    28  ALA28      -0.2715
     36  CB        24.4690   26.0220   15.4450 C.3    28  ALA28       0.0334
     37  N         23.8310   23.2500   13.5050 N.am   29  ASP29      -0.1957
     38  CA        24.4880   21.9800   13.1780 C.3    29  ASP29       0.1840
     39  C         26.0020   22.0910   13.3430 C.2    29  ASP29       0.2622
     40  O         26.6880   21.1340   13.7320 O.2    29  ASP29      -0.2715
     41  CB        24.2070   21.5680   11.7420 C.3    29  ASP29       0.1450
     42  CG        22.7540   21.3440   11.3960 C.2    29  ASP29       0.3671
     43  OD1       21.9300   21.1620   12.2860 O.co2  29  ASP29      -0.2456
     44  OD2       22.5040   21.4090   10.1570 O.co2  29  ASP29      -0.2456
     45  N         26.5510   23.2540   12.9910 N.am   30  ASP30      -0.1971
     46  CA        27.9710   23.5110   12.8620 C.3    30  ASP30       0.1709
     47  C         28.4200   24.5820   13.8020 C.2    30  ASP30       0.2293
     48  O         27.6570   25.2640   14.4540 O.2    30  ASP30      -0.2864
     49  CB        28.2710   23.9540   11.4230 C.3    30  ASP30       0.1436
     50  CG        27.6200   22.9860   10.4610 C.2    30  ASP30       0.3671
     51  OD1       27.9080   21.7800   10.5390 O.co2  30  ASP30      -0.2456
     52  OD2       26.8170   23.4590    9.6530 O.co2  30  ASP30      -0.2456
     53  N         30.5560   28.0950   14.1630 N.3    32  VAL32      -0.1245
     54  CA        30.8920   29.2360   13.3120 C.3    32  VAL32       0.1561
     55  C         31.5410   30.2900   14.1900 C.2    32  VAL32       0.2260
     56  O         30.9590   30.7380   15.1960 O.2    32  VAL32      -0.2867
     57  CB        29.6300   29.7980   12.6190 C.3    32  VAL32       0.0252
     58  CG1       30.0850   30.7550   11.5170 C.3    32  VAL32       0.0019
     59  CG2       28.7000   28.7240   12.0730 C.3    32  VAL32       0.0019
     60  N         32.8100   27.2320    1.7140 N.3    45  ILE45      -0.1231
     61  CA        31.5070   26.6520    1.6230 C.3    45  ILE45       0.1692
     62  C         30.4560   27.7170    1.9490 C.2    45  ILE45       0.2592
     63  O         30.8330   28.8100    2.3690 O.2    45  ILE45      -0.2718
     64  CB        31.3260   25.4640    2.6040 C.3    45  ILE45       0.0266
     65  CG1       31.3370   25.8450    4.0830 C.3    45  ILE45       0.0019
     66  CG2       32.3480   24.3790    2.3060 C.3    45  ILE45       0.0020
     67  CD1       30.7080   24.8230    5.0120 C.3    45  ILE45       0.0001
     68  N         29.2070   27.3580    1.8070 N.am   46  MET46      -0.1965
     69  CA        28.0160   28.1160    2.1320 C.3    46  MET46       0.1736
     70  C         27.2280   27.5110    3.2910 C.2    46  MET46       0.2616
     71  O         27.0260   26.2960    3.3410 O.2    46  MET46      -0.2715
     72  CB        27.0380   28.1510    0.9450 C.3    46  MET46       0.0427
     73  CG        27.7310   28.6830   -0.3030 C.3    46  MET46       0.0599
     74  SD        28.2170   30.4150   -0.1280 S.3    46  MET46      -0.1393
     75  CE        26.6000   31.1690   -0.2300 C.3    46  MET46       0.0692
     76  N         26.7730   28.3360    4.2190 N.am   47  ILE47      -0.1963
     77  CA        25.9190   27.8500    5.2810 C.3    47  ILE47       0.1727
     78  C         24.7210   28.7830    5.3780 C.2    47  ILE47       0.2617
     79  O         24.7980   29.9550    4.9680 O.2    47  ILE47      -0.2715
     80  CB        26.6150   27.7960    6.6440 C.3    47  ILE47       0.0290
     81  CG1       27.0830   29.1810    7.1410 C.3    47  ILE47       0.0022
     82  CG2       27.7410   26.7910    6.5960 C.3    47  ILE47       0.0023
     83  CD1       27.5770   29.1560    8.5900 C.3    47  ILE47       0.0001
     84  N         23.6190   28.2030    5.8290 N.am   48  GLY48      -0.1940
     85  CA        22.3920   28.9750    5.9400 C.3    48  GLY48       0.2014
     86  C         22.0610   29.2030    7.3940 C.2    48  GLY48       0.2639
     87  O         22.4180   28.3760    8.2650 O.2    48  GLY48      -0.2714
     88  N         21.3570   30.3000    7.6590 N.am   49  GLY49      -0.1939
     89  CA        20.8320   30.6520    8.9550 C.3    49  GLY49       0.2014
     90  C         19.4220   31.2010    8.8590 C.2    49  GLY49       0.2638
     91  O         18.7330   31.0000    7.8560 O.2    49  GLY49      -0.2714
     92  N         18.9250   31.8840    9.8820 N.am   50  ILE50      -0.1977
     93  CA        17.5210   32.2790    9.8010 C.3    50  ILE50       0.1596
     94  C         17.2670   33.2790    8.6920 C.2    50  ILE50       0.2287
     95  O         16.1570   33.3910    8.1730 O.2    50  ILE50      -0.2864
     96  CB        17.0220   32.8970   11.1210 C.3    50  ILE50       0.0276
     97  CG1       15.5040   33.0830   11.1140 C.3    50  ILE50       0.0022
     98  CG2       17.7460   34.1980   11.4390 C.3    50  ILE50       0.0022
     99  CD1       14.8050   32.6290   12.3770 C.3    50  ILE50       0.0001
    100  N         21.8490   32.7580    3.4450 N.3    53  PHE53      -0.1241
    101  CA        23.1070   32.0410    3.3220 C.3    53  PHE53       0.1605
    102  C         24.3080   32.9610    3.2790 C.2    53  PHE53       0.2264
    103  O         24.1790   34.0780    2.7380 O.2    53  PHE53      -0.2867
    104  CB        23.0420   31.2160    2.0160 C.3    53  PHE53       0.0534
    105  CG        22.1130   30.0260    2.1290 C.ar   53  PHE53      -0.0203
    106  CD1       20.7390   30.1570    2.0930 C.ar   53  PHE53      -0.0042
    107  CD2       22.6620   28.7640    2.3320 C.ar   53  PHE53      -0.0042
    108  CE1       19.8800   29.0870    2.2910 C.ar   53  PHE53      -0.0003
    109  CE2       21.8170   27.6850    2.5040 C.ar   53  PHE53      -0.0003
    110  CZ        20.4350   27.8270    2.4840 C.ar   53  PHE53      -0.0000
    111  N         35.7840   26.6380    5.7530 N.3    58  GLN58      -0.1245
    112  CA        35.6840   25.4230    6.5480 C.3    58  GLN58       0.1566
    113  C         37.0780   24.9100    6.8940 C.2    58  GLN58       0.2260
    114  O         37.8070   24.5870    5.9440 O.2    58  GLN58      -0.2867
    115  CB        34.9170   24.3330    5.7980 C.3    58  GLN58       0.0367
    116  CG        34.9110   23.0280    6.5690 C.3    58  GLN58       0.0905
    117  CD        34.1140   21.9490    5.8890 C.2    58  GLN58       0.2608
    118  OE1       33.2730   22.2130    5.0110 O.2    58  GLN58      -0.2717
    119  NE2       34.3600   20.6810    6.2350 N.am   58  GLN58      -0.0878
    120  N         35.4300   20.3120   13.1130 N.3    74  THR74      -0.1218
    121  CA        35.2760   21.2920   12.0500 C.3    74  THR74       0.1862
    122  C         34.7840   22.6250   12.6300 C.2    74  THR74       0.2287
    123  O         33.8750   22.6830   13.4330 O.2    74  THR74      -0.2866
    124  CB        34.2850   20.7660   11.0260 C.3    74  THR74       0.1770
    125  OG1       34.9000   19.5960   10.4120 O.3    74  THR74      -0.2211
    126  CG2       33.9620   21.7940    9.9410 C.3    74  THR74       0.0375
    127  N         33.9020   26.5600   11.2220 N.3    76  LEU76      -0.1245
    128  CA        33.6350   27.4410   10.1020 C.3    76  LEU76       0.1561
    129  C         33.9630   28.8790   10.5230 C.2    76  LEU76       0.2260
    130  O         33.5800   29.2730   11.5990 O.2    76  LEU76      -0.2867
    131  CB        32.1800   27.3280    9.6530 C.3    76  LEU76       0.0270
    132  CG        31.6730   25.9030    9.4740 C.3    76  LEU76       0.0019
    133  CD1       30.2350   25.9040    8.9820 C.3    76  LEU76       0.0001
    134  CD2       32.5380   25.1160    8.4870 C.3    76  LEU76       0.0001
    135  N         29.7410   35.7640   10.8450 N.3    80  THR80      -0.1204
    136  CA        28.6080   35.4920   11.7130 C.3    80  THR80       0.1979
    137  C         28.2950   36.5760   12.7200 C.2    80  THR80       0.2460
    138  O         29.2380   37.2170   13.1920 O.2    80  THR80      -0.2732
    139  CB        28.9220   34.1740   12.4970 C.3    80  THR80       0.1783
    140  OG1       27.8630   33.9860   13.4070 O.3    80  THR80      -0.2211
    141  CG2       30.2440   34.2480   13.2440 C.3    80  THR80       0.0376
    142  N         27.0280   36.8060   13.1060 N.am   81  PRO81      -0.2717
    143  CA        26.6820   37.7760   14.1400 C.3    81  PRO81       0.1535
    144  C         27.2950   37.4790   15.4930 C.2    81  PRO81       0.2599
    145  O         27.5400   38.3460   16.3180 O.2    81  PRO81      -0.2715
    146  CB        25.1370   37.7430   14.2560 C.3    81  PRO81       0.0310
    147  CG        24.7010   37.0660   13.0200 C.3    81  PRO81       0.0237
    148  CD        25.8170   36.1920   12.5230 C.3    81  PRO81       0.0939
    149  N         27.5460   36.2300   15.8430 N.am   82  SER82      -0.1950
    150  CA        28.0830   35.7320   17.0850 C.3    82  SER82       0.1924
    151  C         28.9470   34.5110   16.8810 C.2    82  SER82       0.2314
    152  O         28.6040   33.6870   16.0380 O.2    82  SER82      -0.2863
    153  CB        26.9360   35.2340   18.0050 C.3    82  SER82       0.2116
    154  OG        27.3990   34.7710   19.2640 O.3    82  SER82      -0.2180
    155  N         29.3950   30.8810   17.6020 N.3    84  ILE84      -0.1245
    156  CA        28.4810   29.8720   18.1080 C.3    84  ILE84       0.1561
    157  C         29.1750   28.4990   18.0100 C.2    84  ILE84       0.2260
    158  O         29.8170   28.1820   17.0070 O.2    84  ILE84      -0.2867
    159  CB        27.1390   29.7500   17.3670 C.3    84  ILE84       0.0252
    160  CG1       27.3540   29.3960   15.8900 C.3    84  ILE84       0.0019
    161  CG2       26.2680   30.9800   17.5750 C.3    84  ILE84       0.0019
    162  CD1       26.0900   29.4040   15.0620 C.3    84  ILE84       0.0001
@<TRIPOS>BOND
     1    73    74    1
     2    73    72    1
     3    75    74    1
     4    72    69    1
     5    61    60    1
     6    61    62    1
     7    61    64    1
     8    68    62   am
     9    68    69    1
    10    62    63    2
    11   104   105    1
    12   104   101    1
    13   106   105   ar
    14   106   108   ar
    15   105   107   ar
    16    69    70    1
    17   108   110   ar
    18    66    64    1
    19   107   109   ar
    20   110   109   ar
    21    64    65    1
    22   103   102    2
    23   102   101    1
    24    70    71    2
    25    70    76   am
    26   101   100    1
    27    65    67    1
    28    76    77    1
    29    79    78    2
    30   118   117    2
    31    77    78    1
    32    77    80    1
    33    78    84   am
    34   111   112    1
    35   115   112    1
    36   115   116    1
    37    84    85    1
    38   117   119   am
    39   117   116    1
    40    85    86    1
    41   114   113    2
    42   112   113    1
    43    82    80    1
    44    80    81    1
    45    81    83    1
    46    86    88   am
    47    86    87    2
    48    88    89    1
    49    91    90    2
    50    95    94    2
    51   134   132    1
    52    94    93    1
    53    90    89    1
    54    90    92   am
    55   133   132    1
    56   132   131    1
    57   131   128    1
    58    52    50   ar
    59    93    92    1
    60    93    96    1
    61   126   124    1
    62   128   129    1
    63   128   127    1
    64    44    42   ar
    65   125   124    1
    66    50    51   ar
    67    50    49    1
    68   129   130    2
    69   135   136    1
    70   124   121    1
    71    97    96    1
    72    97    99    1
    73    96    98    1
    74    42    41    1
    75    42    43   ar
    76    49    46    1
    77    58    57    1
    78   136   139    1
    79   136   137    1
    80    41    38    1
    81   121   122    1
    82   121   120    1
    83    59    57    1
    84   139   141    1
    85   139   140    1
    86   148   147    1
    87   148   142    1
    88    57    54    1
    89   122   123    2
    90   137   142   am
    91   137   138    2
    92    46    45    1
    93    46    47    1
    94    45    39   am
    95   147   146    1
    96   142   143    1
    97    38    39    1
    98    38    37    1
    99    54    53    1
   100    54    55    1
   101    39    40    2
   102    37    34   am
   103    47    48    2
   104   143   146    1
   105   143   144    1
   106    55    56    2
   107    31    30    2
   108    34    33    1
   109    34    35    2
   110    33    36    1
   111    33    32    1
   112   162   160    1
   113   144   149   am
   114   144   145    2
   115    30    32   am
   116    30    29    1
   117   149   150    1
   118   160   159    1
   119   152   151    2
   120   151   150    1
   121    29    28    1
   122   158   157    2
   123   150   153    1
   124    27    25   ar
   125   159   161    1
   126   159   156    1
   127   155   156    1
   128   153   154    1
   129   157   156    1
   130    25    26   ar
   131    25    24    1
   132    23    22    2
   133    24    21    1
   134    22    21    1
   135    21    20    1
   136    19    17    1
   137    15    14    2
   138    11     9    1
   139    16    17    1
   140    16    13    1
   141    17    18    1
   142    12    13    1
   143    14    13    1
   144     9    10    1
   145     9     8    2
   146     8     7    1
   147     7     6    1
   148     6     5    1
   149     5     2    1
   150     2     3    1
   151     2     1    1
   152     3     4    2
