@<TRIPOS>MOLECULE
tmp/1k1wA00.pdb
 162 162 0 0 0
SMALL
GASTEIGER

@<TRIPOS>ATOM
      1  N         51.0280   25.1490   22.3060 N.3     8  HIS8       -0.1241
      2  CA        52.1450   24.2260   22.1350 C.3     8  HIS8        0.1621
      3  C         53.0430   24.2680   23.3800 C.2     8  HIS8        0.2264
      4  O         53.8050   25.2200   23.5630 O.2     8  HIS8       -0.2867
      5  CB        52.9380   24.6360   20.8760 C.3     8  HIS8        0.0745
      6  CG        54.3360   24.0930   20.8220 C.ar    8  HIS8        0.0817
      7  ND1       55.4440   24.9050   20.7000 N.ar    8  HIS8       -0.2268
      8  CD2       54.8080   22.8270   20.9040 C.ar    8  HIS8        0.1154
      9  CE1       56.5370   24.1610   20.7130 C.ar    8  HIS8        0.1986
     10  NE2       56.1770   22.8960   20.8360 N.ar    8  HIS8       -0.2212
     11  N         52.0070   19.2270   15.2350 N.3   114  TRP114     -0.1241
     12  CA        52.5770   20.5600   15.3850 C.3   114  TRP114      0.1605
     13  C         53.9760   20.4640   14.7860 C.2   114  TRP114      0.2264
     14  O         54.8110   19.6880   15.2490 O.2   114  TRP114     -0.2867
     15  CB        52.6830   20.9730   16.8620 C.3   114  TRP114      0.0550
     16  CG        53.6210   22.1570   17.1120 C.ar  114  TRP114      0.0003
     17  CD1       54.9790   22.1070   17.3180 C.ar  114  TRP114      0.0946
     18  CD2       53.2690   23.5490   17.1560 C.ar  114  TRP114      0.0152
     19  NE1       55.4850   23.3740   17.4880 N.ar  114  TRP114     -0.2442
     20  CE2       54.4600   24.2770   17.3920 C.ar  114  TRP114      0.0810
     21  CE3       52.0640   24.2530   17.0170 C.ar  114  TRP114      0.0012
     22  CZ2       54.4770   25.6790   17.4910 C.ar  114  TRP114      0.0191
     23  CZ3       52.0830   25.6510   17.1160 C.ar  114  TRP114      0.0001
     24  CH2       53.2810   26.3440   17.3510 C.ar  114  TRP114      0.0015
     25  N         59.1630   24.0850   15.5250 N.3   117  GLU117     -0.1231
     26  CA        59.8220   25.2780   15.0090 C.3   117  GLU117      0.1699
     27  C         59.3420   25.5970   13.6080 C.2   117  GLU117      0.2592
     28  O         60.0150   26.2790   12.8490 O.2   117  GLU117     -0.2718
     29  CB        61.3460   25.1000   15.0100 C.3   117  GLU117      0.0402
     30  CG        61.9810   25.0930   16.3920 C.3   117  GLU117      0.1161
     31  CD        61.4760   26.2230   17.2770 C.2   117  GLU117      0.3649
     32  OE1       61.0420   27.2660   16.7420 O.co2 117  GLU117     -0.2457
     33  OE2       61.5200   26.0760   18.5170 O.co2 117  GLU117     -0.2457
     34  N         58.1600   25.1060   13.2770 N.am  118  ARG118     -0.1980
     35  CA        57.5680   25.3140   11.9570 C.3   118  ARG118      0.1597
     36  C         58.5180   25.2250   10.7680 C.2   118  ARG118      0.2287
     37  O         58.2710   25.8360    9.7250 O.2   118  ARG118     -0.2864
     38  CB        56.8020   26.6390   11.9070 C.3   118  ARG118      0.0334
     39  CG        55.4820   26.5960   12.6750 C.3   118  ARG118      0.0492
     40  CD        55.6560   27.1040   14.0840 C.3   118  ARG118      0.2205
     41  NE        55.2870   28.5110   14.1770 N.pl3 118  ARG118     -0.0865
     42  CZ        55.4090   29.2460   15.2760 C.cat 118  ARG118      0.5346
     43  NH1       55.9030   28.7080   16.3860 N.pl3 118  ARG118      0.1354
     44  NH2       55.0100   30.5090   15.2750 N.pl3 118  ARG118      0.1354
     45  N         49.0010   35.5110   17.2310 N.3   175  ARG175     -0.1245
     46  CA        50.1850   35.1850   18.0300 C.3   175  ARG175      0.1563
     47  C         50.8910   36.4180   18.5880 C.2   175  ARG175      0.2260
     48  O         51.9360   36.3120   19.2330 O.2   175  ARG175     -0.2867
     49  CB        51.1690   34.3280   17.2300 C.3   175  ARG175      0.0307
     50  CG        51.1870   34.6090   15.7560 C.3   175  ARG175      0.0489
     51  CD        52.2450   33.7770   15.0840 C.3   175  ARG175      0.2205
     52  NE        53.5340   33.9970   15.7210 N.pl3 175  ARG175     -0.0865
     53  CZ        54.6930   33.9580   15.0770 C.cat 175  ARG175      0.5346
     54  NH1       54.7170   33.7060   13.7740 N.pl3 175  ARG175      0.1354
     55  NH2       55.8240   34.1780   15.7300 N.pl3 175  ARG175      0.1354
     56  N         50.1960   28.8500   19.4390 N.3   201  ASP201     -0.1225
     57  CA        51.4840   29.3470   19.9170 C.3   201  ASP201      0.1805
     58  C         51.9590   28.6690   21.2050 C.2   201  ASP201      0.2597
     59  O         51.2420   27.8740   21.8090 O.2   201  ASP201     -0.2718
     60  CB        51.3810   30.8490   20.1600 C.3   201  ASP201      0.1424
     61  CG        52.6440   31.5790   19.8080 C.2   201  ASP201      0.3668
     62  OD1       53.7390   31.1290   20.2080 O.co2 201  ASP201     -0.2456
     63  OD2       52.5310   32.6150   19.1310 O.co2 201  ASP201     -0.2456
     64  N         53.1740   28.9990   21.6240 N.am  202  ASP202     -0.1974
     65  CA        53.7430   28.4470   22.8440 C.3   202  ASP202      0.1709
     66  C         52.7930   28.7130   23.9890 C.2   202  ASP202      0.2293
     67  O         52.1790   29.7710   24.0410 O.2   202  ASP202     -0.2864
     68  CB        55.0720   29.1220   23.1500 C.3   202  ASP202      0.1436
     69  CG        56.0670   28.9350   22.0540 C.2   202  ASP202      0.3671
     70  OD1       55.6220   28.6430   20.9300 O.co2 202  ASP202     -0.2456
     71  OD2       57.2790   29.0840   22.3080 O.co2 202  ASP202     -0.2456
     72  N         53.6450   31.3560   26.9160 N.3   205  LYS205     -0.1245
     73  CA        53.1840   32.7320   26.8130 C.3   205  LYS205      0.1561
     74  C         52.1420   32.9750   27.8920 C.2   205  LYS205      0.2260
     75  O         52.0300   34.0790   28.4170 O.2   205  LYS205     -0.2867
     76  CB        52.5570   33.0090   25.4450 C.3   205  LYS205      0.0271
     77  CG        53.5470   33.1440   24.3190 C.3   205  LYS205      0.0035
     78  CD        53.0060   34.0180   23.1850 C.3   205  LYS205      0.0206
     79  CE        51.7470   33.4410   22.5540 C.3   205  LYS205      0.1093
     80  NZ        51.2990   34.1920   21.3330 N.3   205  LYS205     -0.1314
     81  N         56.4170   33.5000   30.4480 N.3   209  TRP209     -0.1241
     82  CA        57.1750   34.5810   29.8280 C.3   209  TRP209      0.1605
     83  C         57.3080   35.7660   30.7850 C.2   209  TRP209      0.2264
     84  O         56.6430   35.8060   31.8230 O.2   209  TRP209     -0.2867
     85  CB        56.4990   34.9920   28.5150 C.3   209  TRP209      0.0550
     86  CG        56.7330   34.0120   27.4010 C.ar  209  TRP209      0.0003
     87  CD1       56.8590   32.6580   27.5150 C.ar  209  TRP209      0.0946
     88  CD2       56.8470   34.3070   26.0050 C.ar  209  TRP209      0.0152
     89  NE1       57.0450   32.0890   26.2790 N.ar  209  TRP209     -0.2442
     90  CE2       57.0410   33.0790   25.3330 C.ar  209  TRP209      0.0810
     91  CE3       56.8030   35.4890   25.2550 C.ar  209  TRP209      0.0012
     92  CZ2       57.1920   32.9980   23.9440 C.ar  209  TRP209      0.0191
     93  CZ3       56.9530   35.4100   23.8720 C.ar  209  TRP209      0.0001
     94  CH2       57.1450   34.1700   23.2340 C.ar  209  TRP209      0.0015
     95  N         58.6220   30.2780   10.7450 N.3   250  TYR250     -0.1241
     96  CA        57.8810   31.4930   11.0770 C.3   250  TYR250      0.1605
     97  C         58.8090   32.6710   10.7570 C.2   250  TYR250      0.2264
     98  O         60.0360   32.5150   10.7420 O.2   250  TYR250     -0.2867
     99  CB        57.4280   31.4930   12.5380 C.3   250  TYR250      0.0534
    100  CG        58.4730   31.0990   13.5510 C.ar  250  TYR250     -0.0201
    101  CD1       59.3620   32.0340   14.0570 C.ar  250  TYR250     -0.0009
    102  CD2       58.5390   29.7970   14.0350 C.ar  250  TYR250     -0.0009
    103  CE1       60.2930   31.6860   15.0350 C.ar  250  TYR250      0.0417
    104  CE2       59.4640   29.4320   15.0030 C.ar  250  TYR250      0.0417
    105  CZ        60.3380   30.3780   15.5010 C.ar  250  TYR250      0.1957
    106  OH        61.2640   30.0000   16.4520 O.3   250  TYR250     -0.2866
    107  N         67.3350   35.0780   12.5180 N.3   255  TRP255     -0.1241
    108  CA        68.2430   34.2500   13.3050 C.3   255  TRP255      0.1605
    109  C         69.0340   33.2480   12.4560 C.2   255  TRP255      0.2264
    110  O         70.2410   33.0790   12.6290 O.2   255  TRP255     -0.2867
    111  CB        67.4670   33.4740   14.3650 C.3   255  TRP255      0.0550
    112  CG        66.5240   34.2940   15.1830 C.ar  255  TRP255      0.0003
    113  CD1       66.6980   35.5830   15.6020 C.ar  255  TRP255      0.0946
    114  CD2       65.2880   33.8510   15.7510 C.ar  255  TRP255      0.0152
    115  NE1       65.6440   35.9700   16.4000 N.ar  255  TRP255     -0.2442
    116  CE2       64.7650   34.9250   16.5090 C.ar  255  TRP255      0.0810
    117  CE3       64.5700   32.6470   15.6960 C.ar  255  TRP255      0.0012
    118  CZ2       63.5600   34.8310   17.2050 C.ar  255  TRP255      0.0191
    119  CZ3       63.3740   32.5520   16.3850 C.ar  255  TRP255      0.0001
    120  CH2       62.8780   33.6400   17.1320 C.ar  255  TRP255      0.0015
    121  N         70.3440   25.0510   17.4760 N.3   331  TRP331     -0.1241
    122  CA        70.3040   26.3810   16.8930 C.3   331  TRP331      0.1605
    123  C         70.2280   27.4470   17.9870 C.2   331  TRP331      0.2264
    124  O         70.3800   27.1390   19.1720 O.2   331  TRP331     -0.2867
    125  CB        69.1000   26.5040   15.9590 C.3   331  TRP331      0.0550
    126  CG        67.7810   26.1680   16.6090 C.ar  331  TRP331      0.0003
    127  CD1       67.3560   24.9340   17.0230 C.ar  331  TRP331      0.0946
    128  CD2       66.7110   27.0790   16.9050 C.ar  331  TRP331      0.0152
    129  NE1       66.0830   25.0200   17.5570 N.ar  331  TRP331     -0.2442
    130  CE2       65.6660   26.3240   17.4960 C.ar  331  TRP331      0.0810
    131  CE3       66.5320   28.4580   16.7280 C.ar  331  TRP331      0.0012
    132  CZ2       64.4620   26.9040   17.9080 C.ar  331  TRP331      0.0191
    133  CZ3       65.3330   29.0340   17.1380 C.ar  331  TRP331      0.0001
    134  CH2       64.3130   28.2540   17.7220 C.ar  331  TRP331      0.0015
    135  N         66.0680   33.4940   19.8240 N.3   334  VAL334     -0.1231
    136  CA        65.8130   34.3500   20.9710 C.3   334  VAL334      0.1692
    137  C         66.2080   33.6250   22.2570 C.2   334  VAL334      0.2592
    138  O         66.7840   34.2300   23.1540 O.2   334  VAL334     -0.2718
    139  CB        64.3270   34.7580   21.0410 C.3   334  VAL334      0.0266
    140  CG1       63.4480   33.5170   21.1030 C.3   334  VAL334      0.0020
    141  CG2       64.0930   35.6530   22.2470 C.3   334  VAL334      0.0020
    142  N         65.9140   32.3270   22.3370 N.am  335  PHE335     -0.1976
    143  CA        66.2470   31.5260   23.5260 C.3   335  PHE335      0.1639
    144  C         67.6940   31.0130   23.4860 C.2   335  PHE335      0.2290
    145  O         68.2730   30.8520   22.4100 O.2   335  PHE335     -0.2864
    146  CB        65.2830   30.3390   23.6540 C.3   335  PHE335      0.0560
    147  CG        63.8340   30.7350   23.7990 C.ar  335  PHE335     -0.0200
    148  CD1       62.8310   29.7730   23.7310 C.ar  335  PHE335     -0.0042
    149  CD2       63.4660   32.0580   24.0030 C.ar  335  PHE335     -0.0042
    150  CE1       61.4850   30.1230   23.8660 C.ar  335  PHE335     -0.0003
    151  CE2       62.1200   32.4140   24.1390 C.ar  335  PHE335     -0.0003
    152  CZ        61.1340   31.4470   24.0690 C.ar  335  PHE335     -0.0000
    153  N         58.7800   38.7850   21.8610 N.3   423  HIS423     -0.1241
    154  CA        59.4890   39.3400   20.7120 C.3   423  HIS423      0.1621
    155  C         59.3120   40.8500   20.6110 C.2   423  HIS423      0.2264
    156  O         58.2860   41.3120   20.1140 O.2   423  HIS423     -0.2867
    157  CB        58.9880   38.7210   19.4000 C.3   423  HIS423      0.0745
    158  CG        59.3670   37.2850   19.2050 C.ar  423  HIS423      0.0817
    159  ND1       58.6270   36.2400   19.7130 N.ar  423  HIS423     -0.2268
    160  CD2       60.3990   36.7210   18.5330 C.ar  423  HIS423      0.1154
    161  CE1       59.1830   35.0950   19.3610 C.ar  423  HIS423      0.1986
    162  NE2       60.2600   35.3600   18.6440 N.ar  423  HIS423     -0.2212
@<TRIPOS>BOND
     1    37    36    2
     2    98    97    2
     3    95    96    1
     4    97    96    1
     5    36    35    1
     6    96    99    1
     7    38    35    1
     8    38    39    1
     9    35    34    1
    10   109   110    2
    11   109   108    1
    12   107   108    1
    13    99   100    1
    14    39    40    1
    15    28    27    2
    16    34    27   am
    17   108   111    1
    18   100   102   ar
    19   100   101   ar
    20    27    26    1
    21    54    53    1
    22   102   104   ar
    23   101   103   ar
    24    40    41    1
    25    41    42    2
    26   111   112    1
    27    13    14    2
    28    13    12    1
    29   104   105   ar
    30    26    29    1
    31    26    25    1
    32    29    30    1
    33   103   105   ar
    34    53    52    2
    35    53    55    1
    36    51    52    1
    37    51    50    1
    38   112   113   ar
    39   112   114   ar
    40    11    12    1
    41    44    42    1
    42    42    43    1
    43    12    15    1
    44   105   106    1
    45   113   115   ar
    46   117   114   ar
    47   117   119   ar
    48   114   116   ar
    49    50    49    1
    50   125   126    1
    51   125   122    1
    52   119   120   ar
    53    30    31    1
    54   115   116   ar
    55   116   118   ar
    56   126   128   ar
    57   126   127   ar
    58   131   128   ar
    59   131   133   ar
    60    32    31   ar
    61    15    16    1
    62   122   121    1
    63   122   123    1
    64   128   130   ar
    65    21    23   ar
    66    21    18   ar
    67   127   129   ar
    68    16    18   ar
    69    16    17   ar
    70    23    24   ar
    71   120   118   ar
    72   133   134   ar
    73    18    20   ar
    74    49    46    1
    75    45    46    1
    76    31    33   ar
    77    17    19   ar
    78    24    22   ar
    79    20    19   ar
    80    20    22   ar
    81   130   129   ar
    82   130   132   ar
    83   134   132   ar
    84   123   124    2
    85    46    47    1
    86   160   162   ar
    87   160   158   ar
    88    47    48    2
    89   162   161   ar
    90    63    61   ar
    91   158   157    1
    92   158   159   ar
    93   161   159   ar
    94   157   154    1
    95    56    57    1
    96    61    60    1
    97    61    62   ar
    98   135   136    1
    99    57    60    1
   100    57    58    1
   101   156   155    2
   102   155   154    1
   103     7     9   ar
   104     7     6   ar
   105   154   153    1
   106     9    10   ar
   107     6     5    1
   108     6     8   ar
   109    10     8   ar
   110     5     2    1
   111    70    69   ar
   112   136   139    1
   113   136   137    1
   114   139   140    1
   115   139   141    1
   116    58    64   am
   117    58    59    2
   118    80    79    1
   119    64    65    1
   120    69    71   ar
   121    69    68    1
   122     2     1    1
   123     2     3    1
   124   137   142   am
   125   137   138    2
   126   142   143    1
   127   145   144    2
   128    79    78    1
   129    65    68    1
   130    65    66    1
   131    78    77    1
   132    94    93   ar
   133    94    92   ar
   134     3     4    2
   135   144   143    1
   136   143   146    1
   137   146   147    1
   138   148   147   ar
   139   148   150   ar
   140   147   149   ar
   141   150   152   ar
   142    93    91   ar
   143    92    90   ar
   144    66    67    2
   145   149   151   ar
   146   152   151   ar
   147    77    76    1
   148    91    88   ar
   149    90    88   ar
   150    90    89   ar
   151    76    73    1
   152    88    86   ar
   153    89    87   ar
   154    73    72    1
   155    73    74    1
   156    86    87   ar
   157    86    85    1
   158    74    75    2
   159    85    82    1
   160    82    81    1
   161    82    83    1
   162    83    84    2
