@<TRIPOS>MOLECULE
tmp/1k1xB00.pdb
 128 125 0 0 0
SMALL
GASTEIGER

@<TRIPOS>ATOM
      1  N        -41.9480   38.4550   93.2960 N.3    10  HIS10      -0.1241
      2  CA       -41.5570   38.5590   91.8910 C.3    10  HIS10       0.1621
      3  C        -41.9930   37.2700   91.1910 C.2    10  HIS10       0.2264
      4  O        -41.4650   36.1940   91.4830 O.2    10  HIS10      -0.2867
      5  CB       -40.0320   38.7350   91.8200 C.3    10  HIS10       0.0745
      6  CG       -39.4330   38.4330   90.4820 C.ar   10  HIS10       0.0817
      7  ND1      -39.6880   39.1900   89.3600 N.ar   10  HIS10      -0.2268
      8  CD2      -38.5700   37.4650   90.0940 C.ar   10  HIS10       0.1154
      9  CE1      -39.0080   38.7020   88.3380 C.ar   10  HIS10       0.1986
     10  NE2      -38.3210   37.6530   88.7560 N.ar   10  HIS10      -0.2212
     11  N        -42.3300   35.1850   87.6910 N.3    12  HIS12      -0.1241
     12  CA       -41.8220   35.1210   86.3330 C.3    12  HIS12       0.1621
     13  C        -41.7510   33.7260   85.7500 C.2    12  HIS12       0.2264
     14  O        -41.5740   32.7380   86.4540 O.2    12  HIS12      -0.2867
     15  CB       -40.4240   35.7380   86.2630 C.3    12  HIS12       0.0745
     16  CG       -39.7230   35.5000   84.9590 C.ar   12  HIS12       0.0817
     17  ND1      -40.1340   36.0770   83.7750 N.ar   12  HIS12      -0.2268
     18  CD2      -38.6400   34.7450   84.6540 C.ar   12  HIS12       0.1154
     19  CE1      -39.3300   35.6910   82.7980 C.ar   12  HIS12       0.1986
     20  NE2      -38.4150   34.8830   83.3050 N.ar   12  HIS12      -0.2212
     21  N        -40.0440   32.3290   81.9650 N.3    14  PRO14      -0.2116
     22  CA       -39.3780   32.7200   80.7140 C.3    14  PRO14       0.1372
     23  C        -40.2110   32.5460   79.4400 C.2    14  PRO14       0.2244
     24  O        -41.0050   31.6070   79.3280 O.2    14  PRO14      -0.2868
     25  CB       -38.1130   31.8610   80.7120 C.3    14  PRO14       0.0268
     26  CG       -38.5330   30.6380   81.4650 C.3    14  PRO14       0.0207
     27  CD       -39.3440   31.1990   82.6040 C.3    14  PRO14       0.0892
     28  N        -38.9420   40.6800   80.4390 N.3    86  GLU86      -0.1245
     29  CA       -37.9480   40.2880   81.4360 C.3    86  GLU86       0.1567
     30  C        -36.4860   40.2820   80.9580 C.2    86  GLU86       0.2260
     31  O        -35.7600   39.3110   81.1490 O.2    86  GLU86      -0.2867
     32  CB       -38.3210   38.9090   81.9960 C.3    86  GLU86       0.0388
     33  CG       -37.7270   38.5990   83.3650 C.3    86  GLU86       0.1160
     34  CD       -38.3090   39.4640   84.4770 C.2    86  GLU86       0.3649
     35  OE1      -39.3410   40.1330   84.2510 O.co2  86  GLU86      -0.2457
     36  OE2      -37.7430   39.4640   85.5900 O.co2  86  GLU86      -0.2457
     37  N        -34.2750   42.5340   87.1640 N.3   121  THR121     -0.1203
     38  CA       -34.2510   41.1600   86.6940 C.3   121  THR121      0.1994
     39  C        -32.8930   40.5480   87.0140 C.2   121  THR121      0.2618
     40  O        -31.8610   41.1330   86.7240 O.2   121  THR121     -0.2717
     41  CB       -34.5520   41.1040   85.1780 C.3   121  THR121      0.1784
     42  OG1      -35.9110   41.5130   84.9580 O.3   121  THR121     -0.2211
     43  CG2      -34.3520   39.6980   84.6350 C.3   121  THR121      0.0376
     44  N        -32.9070   39.3650   87.6190 N.am  122  GLU122     -0.1965
     45  CA       -31.6820   38.6830   88.0280 C.3   122  GLU122      0.1733
     46  C        -30.8110   39.5590   88.9400 C.2   122  GLU122      0.2616
     47  O        -29.6140   39.3120   89.0960 O.2   122  GLU122     -0.2715
     48  CB       -30.8730   38.2220   86.8150 C.3   122  GLU122      0.0429
     49  CG       -31.5160   37.0790   86.0350 C.3   122  GLU122      0.1163
     50  CD       -32.1040   35.9920   86.9320 C.2   122  GLU122      0.3649
     51  OE1      -31.4500   35.5850   87.9210 O.co2 122  GLU122     -0.2457
     52  OE2      -33.2290   35.5340   86.6350 O.co2 122  GLU122     -0.2457
     53  N        -31.4240   40.5850   89.5300 N.am  123  ARG123     -0.1977
     54  CA       -30.7270   41.4740   90.4600 C.3   123  ARG123      0.1597
     55  C        -29.4930   42.1800   89.8790 C.2   123  ARG123      0.2287
     56  O        -28.6270   42.6250   90.6320 O.2   123  ARG123     -0.2864
     57  CB       -30.3060   40.6710   91.7050 C.3   123  ARG123      0.0334
     58  CG       -31.4020   40.3970   92.7530 C.3   123  ARG123      0.0492
     59  CD       -32.7400   39.9670   92.1580 C.3   123  ARG123      0.2205
     60  NE       -33.2330   38.6780   92.6530 N.pl3 123  ARG123     -0.0865
     61  CZ       -33.4790   38.3790   93.9300 C.cat 123  ARG123      0.5346
     62  NH1      -33.2750   39.2740   94.8930 N.pl3 123  ARG123      0.1354
     63  NH2      -33.9570   37.1800   94.2430 N.pl3 123  ARG123      0.1354
     64  N        -38.6180   35.7350   94.9740 N.3   213  ASP213     -0.1239
     65  CA       -39.3610   35.0200   93.9430 C.3   213  ASP213      0.1674
     66  C        -40.7000   34.5130   94.4690 C.2   213  ASP213      0.2266
     67  O        -40.7820   33.9680   95.5680 O.2   213  ASP213     -0.2867
     68  CB       -38.5280   33.8500   93.3970 C.3   213  ASP213      0.1410
     69  CG       -37.2620   34.3130   92.6840 C.2   213  ASP213      0.3668
     70  OD1      -37.1310   35.5270   92.4140 O.co2 213  ASP213     -0.2456
     71  OD2      -36.3950   33.4630   92.3800 O.co2 213  ASP213     -0.2456
     72  N        -42.3450   32.0950   93.2980 N.3   215  GLU215     -0.1245
     73  CA       -42.3950   30.6390   93.2180 C.3   215  GLU215      0.1567
     74  C        -42.0320   29.9600   94.5480 C.2   215  GLU215      0.2260
     75  O        -42.2790   28.7660   94.7290 O.2   215  GLU215     -0.2867
     76  CB       -41.4690   30.1310   92.1070 C.3   215  GLU215      0.0388
     77  CG       -41.8670   30.5450   90.6830 C.3   215  GLU215      0.1160
     78  CD       -41.7140   32.0410   90.4190 C.2   215  GLU215      0.3649
     79  OE1      -40.7520   32.6480   90.9450 O.co2 215  GLU215     -0.2457
     80  OE2      -42.5460   32.6050   89.6710 O.co2 215  GLU215     -0.2457
     81  N        -41.4820   25.8360   94.5160 N.3   220  TRP220     -0.1241
     82  CA       -40.2510   25.2330   95.0380 C.3   220  TRP220      0.1605
     83  C        -40.5470   23.9690   95.8450 C.2   220  TRP220      0.2264
     84  O        -41.5830   23.8690   96.5000 O.2   220  TRP220     -0.2867
     85  CB       -39.4950   26.2340   95.9160 C.3   220  TRP220      0.0550
     86  CG       -38.8580   27.3560   95.1510 C.ar  220  TRP220      0.0003
     87  CD1      -39.2270   27.8260   93.9230 C.ar  220  TRP220      0.0946
     88  CD2      -37.7870   28.1990   95.5980 C.ar  220  TRP220      0.0152
     89  NE1      -38.4560   28.9090   93.5790 N.ar  220  TRP220     -0.2442
     90  CE2      -37.5650   29.1620   94.5880 C.ar  220  TRP220      0.0810
     91  CE3      -36.9950   28.2360   96.7560 C.ar  220  TRP220      0.0012
     92  CZ2      -36.5850   30.1560   94.7000 C.ar  220  TRP220      0.0191
     93  CZ3      -36.0200   29.2240   96.8690 C.ar  220  TRP220      0.0001
     94  CH2      -35.8250   30.1720   95.8430 C.ar  220  TRP220      0.0015
     95  N        -25.9090   38.8830   92.5620 N.3   271  TYR271     -0.1241
     96  CA       -25.9470   38.0860   93.7790 C.3   271  TYR271      0.1605
     97  C        -24.7820   37.1030   93.8330 C.2   271  TYR271      0.2264
     98  O        -24.1800   36.7780   92.8040 O.2   271  TYR271     -0.2867
     99  CB       -27.3110   37.4030   93.9770 C.3   271  TYR271      0.0534
    100  CG       -27.8760   36.5760   92.8430 C.ar  271  TYR271     -0.0201
    101  CD1      -27.6450   35.2020   92.7760 C.ar  271  TYR271     -0.0009
    102  CD2      -28.7240   37.1490   91.8910 C.ar  271  TYR271     -0.0009
    103  CE1      -28.2540   34.4140   91.7940 C.ar  271  TYR271      0.0417
    104  CE2      -29.3340   36.3770   90.9060 C.ar  271  TYR271      0.0417
    105  CZ       -29.0970   35.0100   90.8620 C.ar  271  TYR271      0.1957
    106  OH       -29.6960   34.2380   89.8880 O.3   271  TYR271     -0.2866
    107  N        -33.3790   34.7690   80.4610 N.3   353  ASP353     -0.1239
    108  CA       -33.1540   33.3620   80.7680 C.3   353  ASP353      0.1674
    109  C        -32.2750   32.5260   79.8400 C.2   353  ASP353      0.2266
    110  O        -31.4080   31.7920   80.3110 O.2   353  ASP353     -0.2867
    111  CB       -34.5060   32.6800   80.9700 C.3   353  ASP353      0.1410
    112  CG       -35.2820   33.2770   82.1330 C.2   353  ASP353      0.3668
    113  OD1      -34.9280   32.9790   83.3020 O.co2 353  ASP353     -0.2456
    114  OD2      -36.2320   34.0600   81.8820 O.co2 353  ASP353     -0.2456
    115  N        -27.8780   32.8010   79.7190 N.3   356  TRP356     -0.1241
    116  CA       -26.9290   32.3550   80.7340 C.3   356  TRP356      0.1605
    117  C        -27.2970   31.0120   81.3400 C.2   356  TRP356      0.2264
    118  O        -28.3410   30.4420   81.0280 O.2   356  TRP356     -0.2867
    119  CB       -26.8210   33.3940   81.8550 C.3   356  TRP356      0.0550
    120  CG       -28.1370   33.7180   82.4940 C.ar  356  TRP356      0.0003
    121  CD1      -29.1510   34.4560   81.9550 C.ar  356  TRP356      0.0946
    122  CD2      -28.5880   33.3000   83.7870 C.ar  356  TRP356      0.0152
    123  NE1      -30.2090   34.5300   82.8340 N.ar  356  TRP356     -0.2442
    124  CE2      -29.8910   33.8270   83.9660 C.ar  356  TRP356      0.0810
    125  CE3      -28.0210   32.5330   84.8110 C.ar  356  TRP356      0.0012
    126  CZ2      -30.6360   33.6070   85.1320 C.ar  356  TRP356      0.0191
    127  CZ3      -28.7580   32.3140   85.9670 C.ar  356  TRP356      0.0001
    128  CH2      -30.0550   32.8510   86.1180 C.ar  356  TRP356      0.0015
@<TRIPOS>BOND
     1    24    23    2
     2    23    22    1
     3   115   116    1
     4   109   110    2
     5   109   108    1
     6    28    29    1
     7   107   108    1
     8    25    22    1
     9    25    26    1
    10    22    21    1
    11   116   117    1
    12   116   119    1
    13   108   111    1
    14    30    31    2
    15    30    29    1
    16   111   112    1
    17   118   117    2
    18    29    32    1
    19    26    27    1
    20   119   120    1
    21   114   112   ar
    22   121   120   ar
    23   121   123   ar
    24    21    27    1
    25    32    33    1
    26   112   113   ar
    27   120   122   ar
    28    19    20   ar
    29    19    17   ar
    30   123   124   ar
    31    20    18   ar
    32    33    34    1
    33    17    16   ar
    34   122   124   ar
    35   122   125   ar
    36   124   126   ar
    37    35    34   ar
    38    34    36   ar
    39    43    41    1
    40    18    16   ar
    41   125   127   ar
    42    42    41    1
    43    16    15    1
    44   126   128   ar
    45    41    38    1
    46    13    12    1
    47    13    14    2
    48   127   128   ar
    49    49    48    1
    50    49    50    1
    51    15    12    1
    52    12    11    1
    53    52    50   ar
    54    38    39    1
    55    38    37    1
    56    40    39    2
    57    48    45    1
    58    50    51   ar
    59    39    44   am
    60    44    45    1
    61    45    46    1
    62     9    10   ar
    63     9     7   ar
    64    10     8   ar
    65    46    47    2
    66    46    53   am
    67     7     6   ar
    68    53    54    1
    69    80    78   ar
    70    55    54    1
    71    55    56    2
    72   106   105    1
    73     8     6   ar
    74    78    77    1
    75    78    79   ar
    76    54    57    1
    77     6     5    1
    78    77    76    1
    79   105   104   ar
    80   105   103   ar
    81   104   102   ar
    82     3     4    2
    83     3     2    1
    84    57    58    1
    85   103   101   ar
    86     5     2    1
    87   102   100   ar
    88     2     1    1
    89    76    73    1
    90    59    60    1
    91    59    58    1
    92    71    69   ar
    93    70    69   ar
    94    95    96    1
    95    60    61    2
    96    69    68    1
    97   101   100   ar
    98    98    97    2
    99   100    99    1
   100    73    72    1
   101    73    74    1
   102    68    65    1
   103    89    87   ar
   104    89    90   ar
   105    96    97    1
   106    96    99    1
   107    87    86   ar
   108    61    63    1
   109    61    62    1
   110    65    66    1
   111    65    64    1
   112    66    67    2
   113    81    82    1
   114    74    75    2
   115    90    92   ar
   116    90    88   ar
   117    92    94   ar
   118    82    83    1
   119    82    85    1
   120    86    88   ar
   121    86    85    1
   122    88    91   ar
   123    94    93   ar
   124    83    84    2
   125    91    93   ar
