@<TRIPOS>MOLECULE
tmp/1k1yB00.pdb
 111 110 0 0 0
SMALL
GASTEIGER

@<TRIPOS>ATOM
      1  N        -41.7310   25.1280   78.1790 N.3    18  PHE18      -0.1241
      2  CA       -42.8170   24.1840   77.9240 C.3    18  PHE18       0.1605
      3  C        -44.1400   24.7310   78.4470 C.2    18  PHE18       0.2264
      4  O        -44.1940   25.3350   79.5200 O.2    18  PHE18      -0.2867
      5  CB       -42.5120   22.8540   78.6050 C.3    18  PHE18       0.0534
      6  CG       -41.2990   22.1650   78.0640 C.ar   18  PHE18      -0.0203
      7  CD1      -40.4790   21.4190   78.9000 C.ar   18  PHE18      -0.0042
      8  CD2      -40.9930   22.2340   76.7120 C.ar   18  PHE18      -0.0042
      9  CE1      -39.3690   20.7480   78.3950 C.ar   18  PHE18      -0.0003
     10  CE2      -39.8870   21.5670   76.1940 C.ar   18  PHE18      -0.0003
     11  CZ       -39.0730   20.8210   77.0390 C.ar   18  PHE18      -0.0000
     12  N        -30.8930   24.5130   77.1320 N.3   365  LEU365     -0.1231
     13  CA       -32.2040   24.0090   76.7390 C.3   365  LEU365      0.1678
     14  C        -32.5560   24.4270   75.3110 C.2   365  LEU365      0.2434
     15  O        -32.9300   25.5780   75.0620 O.2   365  LEU365     -0.2733
     16  CB       -33.2820   24.5090   77.7010 C.3   365  LEU365      0.0284
     17  CG       -33.1220   24.1410   79.1800 C.3   365  LEU365      0.0019
     18  CD1      -34.4300   24.4520   79.8930 C.3   365  LEU365      0.0001
     19  CD2      -32.7690   22.6690   79.3420 C.3   365  LEU365      0.0001
     20  N        -32.4570   23.4870   74.3560 N.am  366  PRO366     -0.2718
     21  CA       -32.7530   23.7200   72.9390 C.3   366  PRO366      0.1535
     22  C        -33.9950   24.5620   72.6600 C.2   366  PRO366      0.2598
     23  O        -33.9710   25.4340   71.7900 O.2   366  PRO366     -0.2715
     24  CB       -32.8750   22.3070   72.3830 C.3   366  PRO366      0.0310
     25  CG       -31.8430   21.5650   73.1760 C.3   366  PRO366      0.0237
     26  CD       -32.1090   22.0720   74.5860 C.3   366  PRO366      0.0939
     27  N        -35.0770   24.3170   73.3920 N.am  367  HIS367     -0.1974
     28  CA       -36.3000   25.0810   73.1590 C.3   367  HIS367      0.1656
     29  C        -36.2440   26.5440   73.5960 C.2   367  HIS367      0.2291
     30  O        -37.0140   27.3710   73.0990 O.2   367  HIS367     -0.2864
     31  CB       -37.5130   24.3890   73.8020 C.3   367  HIS367      0.0771
     32  CG       -37.3540   24.0970   75.2620 C.ar  367  HIS367      0.0820
     33  ND1      -36.4070   23.2200   75.7470 N.ar  367  HIS367     -0.2267
     34  CD2      -38.0530   24.5300   76.3370 C.ar  367  HIS367      0.1154
     35  CE1      -36.5340   23.1210   77.0570 C.ar  367  HIS367      0.1986
     36  NE2      -37.5260   23.9050   77.4410 N.ar  367  HIS367     -0.2212
     37  N        -34.1110   28.2440   70.6730 N.3   370  ARG370     -0.1245
     38  CA       -34.9400   28.3630   69.4780 C.3   370  ARG370      0.1563
     39  C        -35.9120   29.5290   69.5410 C.2   370  ARG370      0.2260
     40  O        -36.2440   30.1230   68.5130 O.2   370  ARG370     -0.2867
     41  CB       -35.7230   27.0690   69.2140 C.3   370  ARG370      0.0307
     42  CG       -34.9150   25.9530   68.5490 C.3   370  ARG370      0.0489
     43  CD       -35.7990   25.1400   67.5960 C.3   370  ARG370      0.2205
     44  NE       -37.0080   24.6820   68.2680 N.pl3 370  ARG370     -0.0865
     45  CZ       -37.0370   23.7020   69.1670 C.cat 370  ARG370      0.5346
     46  NH1      -35.9250   23.0530   69.4940 N.pl3 370  ARG370      0.1354
     47  NH2      -38.1730   23.4030   69.7750 N.pl3 370  ARG370      0.1354
     48  N        -33.5970   18.4310   67.7240 N.3   558  HIS558     -0.1226
     49  CA       -33.9420   18.4470   69.1430 C.3   558  HIS558      0.1752
     50  C        -35.1510   17.6120   69.5900 C.2   558  HIS558      0.2596
     51  O        -35.2360   17.2310   70.7600 O.2   558  HIS558     -0.2718
     52  CB       -34.1810   19.8990   69.5810 C.3   558  HIS558      0.0759
     53  CG       -33.0570   20.8360   69.2510 C.ar  558  HIS558      0.0818
     54  ND1      -33.2350   22.1990   69.1490 N.ar  558  HIS558     -0.2268
     55  CD2      -31.7410   20.6090   69.0200 C.ar  558  HIS558      0.1154
     56  CE1      -32.0780   22.7710   68.8680 C.ar  558  HIS558      0.1986
     57  NE2      -31.1550   21.8290   68.7840 N.ar  558  HIS558     -0.2212
     58  N        -36.0840   17.3390   68.6790 N.am  559  SER559     -0.1952
     59  CA       -37.2950   16.5930   69.0230 C.3   559  SER559      0.1924
     60  C        -37.1940   15.0690   68.9540 C.2   559  SER559      0.2314
     61  O        -37.9080   14.3650   69.6700 O.2   559  SER559     -0.2863
     62  CB       -38.4610   17.0590   68.1480 C.3   559  SER559      0.2116
     63  OG       -38.2300   16.7490   66.7850 O.3   559  SER559     -0.2180
     64  N        -34.8140   11.9240   69.5950 N.3   561  MET561     -0.1245
     65  CA       -33.5630   11.4640   70.1770 C.3   561  MET561      0.1570
     66  C        -32.8490   10.4520   69.2920 C.2   561  MET561      0.2261
     67  O        -33.1390    9.2560   69.3370 O.2   561  MET561     -0.2867
     68  CB       -33.8030   10.8680   71.5650 C.3   561  MET561      0.0387
     69  CG       -33.2510   11.7290   72.6980 C.3   561  MET561      0.0595
     70  SD       -34.1880   13.2480   73.0090 S.3   561  MET561     -0.1393
     71  CE       -33.6210   14.3220   71.6870 C.3   561  MET561      0.0692
     72  N        -40.5880   18.4210   65.7800 N.3   578  TYR578     -0.1241
     73  CA       -40.7680   19.6320   66.5780 C.3   578  TYR578      0.1605
     74  C        -39.4720   20.4130   66.7860 C.2   578  TYR578      0.2264
     75  O        -39.3280   21.1700   67.7510 O.2   578  TYR578     -0.2867
     76  CB       -41.4140   19.2800   67.9220 C.3   578  TYR578      0.0534
     77  CG       -42.7270   18.5470   67.7540 C.ar  578  TYR578     -0.0201
     78  CD1      -42.7770   17.1540   67.7710 C.ar  578  TYR578     -0.0009
     79  CD2      -43.9120   19.2480   67.5090 C.ar  578  TYR578     -0.0009
     80  CE1      -43.9690   16.4730   67.5440 C.ar  578  TYR578      0.0417
     81  CE2      -45.1150   18.5760   67.2780 C.ar  578  TYR578      0.0417
     82  CZ       -45.1330   17.1880   67.2960 C.ar  578  TYR578      0.1957
     83  OH       -46.3080   16.5150   67.0500 O.3   578  TYR578     -0.2866
     84  N        -29.0490   13.4680   80.2110 N.3   610  PHE610     -0.1227
     85  CA       -28.4380   14.0510   79.0220 C.3   610  PHE610      0.1736
     86  C        -29.4320   14.9160   78.2630 C.2   610  PHE610      0.2595
     87  O        -30.6460   14.7790   78.4180 O.2   610  PHE610     -0.2718
     88  CB       -27.9410   12.9620   78.0730 C.3   610  PHE610      0.0547
     89  CG       -26.4970   12.5950   78.2580 C.ar  610  PHE610     -0.0202
     90  CD1      -25.5080   13.5740   78.2500 C.ar  610  PHE610     -0.0042
     91  CD2      -26.1180   11.2610   78.4000 C.ar  610  PHE610     -0.0042
     92  CE1      -24.1570   13.2300   78.3790 C.ar  610  PHE610     -0.0003
     93  CE2      -24.7720   10.9060   78.5300 C.ar  610  PHE610     -0.0003
     94  CZ       -23.7880   11.8950   78.5190 C.ar  610  PHE610     -0.0000
     95  N        -28.8990   15.8130   77.4440 N.am  611  ILE611     -0.1966
     96  CA       -29.7180   16.6820   76.6130 C.3   611  ILE611      0.1727
     97  C        -29.1370   16.6050   75.2090 C.2   611  ILE611      0.2616
     98  O        -27.9180   16.7010   75.0290 O.2   611  ILE611     -0.2715
     99  CB       -29.6810   18.1430   77.0880 C.3   611  ILE611      0.0290
    100  CG1      -30.2570   18.2430   78.5030 C.3   611  ILE611      0.0022
    101  CG2      -30.4580   19.0250   76.1080 C.3   611  ILE611      0.0023
    102  CD1      -30.4260   19.6560   79.0030 C.3   611  ILE611      0.0001
    103  N        -30.0040   16.4020   74.2200 N.am  612  GLN612     -0.1977
    104  CA       -29.5560   16.3200   72.8340 C.3   612  GLN612      0.1601
    105  C        -29.5550   17.7210   72.2330 C.2   612  GLN612      0.2287
    106  O        -30.6020   18.2370   71.8350 O.2   612  GLN612     -0.2864
    107  CB       -30.4750   15.3990   72.0280 C.3   612  GLN612      0.0394
    108  CG       -30.0620   15.2470   70.5710 C.3   612  GLN612      0.0908
    109  CD       -30.9130   14.2440   69.8160 C.2   612  GLN612      0.2608
    110  OE1      -30.8720   13.0430   70.0900 O.2   612  GLN612     -0.2717
    111  NE2      -31.6910   14.7350   68.8590 N.am  612  GLN612     -0.0878
@<TRIPOS>BOND
     1    72    73    1
     2    73    74    1
     3    73    76    1
     4    63    62    1
     5    74    75    2
     6    83    82    1
     7    81    82   ar
     8    81    79   ar
     9    82    80   ar
    10    79    77   ar
    11    80    78   ar
    12    43    44    1
    13    43    42    1
    14    48    49    1
    15    77    78   ar
    16    77    76    1
    17    62    59    1
    18    44    45    2
    19    40    39    2
    20    42    41    1
    21    58    59    1
    22    58    50   am
    23    57    56   ar
    24    57    55   ar
    25   111   109   am
    26    56    54   ar
    27    60    59    1
    28    60    61    2
    29    55    53   ar
    30    49    52    1
    31    49    50    1
    32    54    53   ar
    33    45    46    1
    34    45    47    1
    35    41    38    1
    36    53    52    1
    37    66    67    2
    38    66    65    1
    39    38    39    1
    40    38    37    1
    41    50    51    2
    42    64    65    1
    43   109   110    2
    44   109   108    1
    45    65    68    1
    46   108   107    1
    47    68    69    1
    48    71    70    1
    49    23    22    2
    50   106   105    2
    51   107   104    1
    52   105   104    1
    53    24    21    1
    54    24    25    1
    55    22    21    1
    56    22    27   am
    57    69    70    1
    58   104   103    1
    59    21    20    1
    60    30    29    2
    61    28    27    1
    62    28    29    1
    63    28    31    1
    64    25    26    1
    65    31    32    1
    66   103    97   am
    67    20    26    1
    68    20    14   am
    69    98    97    2
    70    15    14    2
    71    97    96    1
    72    32    33   ar
    73    32    34   ar
    74    14    13    1
    75    33    35   ar
    76   101    99    1
    77    10     8   ar
    78    10    11   ar
    79    34    36   ar
    80    96    99    1
    81    96    95    1
    82     8     6   ar
    83    13    12    1
    84    13    16    1
    85    11     9   ar
    86    35    36   ar
    87    99   100    1
    88    95    86   am
    89    16    17    1
    90     2     1    1
    91     2     3    1
    92     2     5    1
    93     6     5    1
    94     6     7   ar
    95    88    89    1
    96    88    85    1
    97    90    89   ar
    98    90    92   ar
    99    89    91   ar
   100    86    87    2
   101    86    85    1
   102    92    94   ar
   103     9     7   ar
   104    91    93   ar
   105     3     4    2
   106   100   102    1
   107    94    93   ar
   108    85    84    1
   109    17    19    1
   110    17    18    1
