@<TRIPOS>MOLECULE
tmp/1k1yA00.pdb
 238 236 0 0 0
SMALL
GASTEIGER

@<TRIPOS>ATOM
      1  N          2.9830   58.0880   83.3540 N.3    11  HIS11      -0.1241
      2  CA         1.8710   58.9920   83.5330 C.3    11  HIS11       0.1621
      3  C          2.3340   60.1330   84.4570 C.2    11  HIS11       0.2264
      4  O          2.6160   59.9180   85.6460 O.2    11  HIS11      -0.2867
      5  CB         0.7040   58.1540   84.1080 C.3    11  HIS11       0.0745
      6  CG        -0.2990   58.9310   84.8980 C.ar   11  HIS11       0.0817
      7  ND1       -1.1620   59.8370   84.3240 N.ar   11  HIS11      -0.2268
      8  CD2       -0.5790   58.9320   86.2230 C.ar   11  HIS11       0.1154
      9  CE1       -1.9320   60.3650   85.2620 C.ar   11  HIS11       0.1986
     10  NE2       -1.5980   59.8340   86.4230 N.ar   11  HIS11      -0.2212
     11  N          1.5740   63.7970   86.2120 N.3    13  HIS13      -0.1241
     12  CA         0.4840   64.6650   86.6270 C.3    13  HIS13       0.1621
     13  C          0.7680   65.4290   87.9070 C.2    13  HIS13       0.2264
     14  O          1.3950   64.9180   88.8350 O.2    13  HIS13      -0.2867
     15  CB        -0.7970   63.8180   86.7920 C.3    13  HIS13       0.0745
     16  CG        -1.8720   64.4710   87.6090 C.ar   13  HIS13       0.0817
     17  ND1       -2.5210   65.6210   87.2140 N.ar   13  HIS13      -0.2268
     18  CD2       -2.4220   64.1190   88.7980 C.ar   13  HIS13       0.1154
     19  CE1       -3.4240   65.9480   88.1220 C.ar   13  HIS13       0.1986
     20  NE2       -3.3860   65.0540   89.0920 N.ar   13  HIS13      -0.2212
     21  N         -1.6360   67.9250   90.3270 N.3    15  PRO15      -0.2116
     22  CA        -2.9670   68.5200   90.4810 C.3    15  PRO15       0.1372
     23  C         -2.9560   70.0440   90.6380 C.2    15  PRO15       0.2244
     24  O         -2.0510   70.6050   91.2590 O.2    15  PRO15      -0.2868
     25  CB        -3.5210   67.8000   91.7190 C.3    15  PRO15       0.0268
     26  CG        -2.2890   67.5330   92.5320 C.3    15  PRO15       0.0207
     27  CD        -1.2950   67.0740   91.4810 C.3    15  PRO15       0.0892
     28  N         -5.0230   57.4720   78.9950 N.3   120  TRP120     -0.1241
     29  CA        -4.6300   56.9540   80.2870 C.3   120  TRP120      0.1605
     30  C         -5.8750   57.2310   81.1240 C.2   120  TRP120      0.2264
     31  O         -6.2770   58.3780   81.2440 O.2   120  TRP120     -0.2867
     32  CB        -3.4440   57.7300   80.8570 C.3   120  TRP120      0.0550
     33  CG        -3.2970   57.5440   82.3360 C.ar  120  TRP120      0.0003
     34  CD1       -3.8590   58.3110   83.3200 C.ar  120  TRP120      0.0946
     35  CD2       -2.6110   56.4760   83.0000 C.ar  120  TRP120      0.0152
     36  NE1       -3.5660   57.7850   84.5520 N.ar  120  TRP120     -0.2442
     37  CE2       -2.8020   56.6580   84.3860 C.ar  120  TRP120      0.0810
     38  CE3       -1.8560   55.3830   82.5550 C.ar  120  TRP120      0.0012
     39  CZ2       -2.2650   55.7850   85.3390 C.ar  120  TRP120      0.0191
     40  CZ3       -1.3180   54.5090   83.5020 C.ar  120  TRP120      0.0001
     41  CH2       -1.5280   54.7210   84.8820 C.ar  120  TRP120      0.0015
     42  N         -6.9000   57.3760   87.4180 N.3   123  GLU123     -0.1231
     43  CA        -7.2230   56.5220   88.5460 C.3   123  GLU123      0.1699
     44  C         -7.8960   55.2510   88.0350 C.2   123  GLU123      0.2592
     45  O         -8.4870   54.4970   88.8010 O.2   123  GLU123     -0.2718
     46  CB        -8.1320   57.2370   89.5520 C.3   123  GLU123      0.0402
     47  CG        -7.4990   58.4230   90.2640 C.3   123  GLU123      0.1161
     48  CD        -6.0560   58.1810   90.7040 C.2   123  GLU123      0.3649
     49  OE1       -5.6640   57.0230   90.9420 O.co2 123  GLU123     -0.2457
     50  OE2       -5.3080   59.1650   90.8260 O.co2 123  GLU123     -0.2457
     51  N         -7.7810   55.0310   86.7270 N.am  124  ARG124     -0.1980
     52  CA        -8.3440   53.8640   86.0640 C.3   124  ARG124      0.1597
     53  C         -9.7510   53.4750   86.5270 C.2   124  ARG124      0.2287
     54  O        -10.0580   52.2880   86.6540 O.2   124  ARG124     -0.2864
     55  CB        -7.3990   52.6670   86.2310 C.3   124  ARG124      0.0334
     56  CG        -6.0670   52.8060   85.5020 C.3   124  ARG124      0.0492
     57  CD        -4.9280   53.2860   86.4120 C.3   124  ARG124      0.2205
     58  NE        -4.1570   52.1830   86.9930 N.pl3 124  ARG124     -0.0865
     59  CZ        -3.0150   52.3410   87.6600 C.cat 124  ARG124      0.5346
     60  NH1       -2.5120   53.5580   87.8310 N.pl3 124  ARG124      0.1354
     61  NH2       -2.3710   51.2870   88.1510 N.pl3 124  ARG124      0.1354
     62  N          4.4320   46.8690   87.8660 N.3   182  ARG182     -0.1231
     63  CA         4.3100   48.0990   88.6450 C.3   182  ARG182      0.1694
     64  C          5.1310   48.0130   89.9250 C.2   182  ARG182      0.2592
     65  O          5.4700   49.0360   90.5230 O.2   182  ARG182     -0.2718
     66  CB         2.8460   48.4110   89.0020 C.3   182  ARG182      0.0321
     67  CG         2.0210   48.9600   87.8540 C.3   182  ARG182      0.0489
     68  CD         0.7390   49.6600   88.3270 C.3   182  ARG182      0.2205
     69  NE        -0.2860   48.7460   88.8490 N.pl3 182  ARG182     -0.0865
     70  CZ        -0.6840   48.7090   90.1190 C.cat 182  ARG182      0.5346
     71  NH1       -0.1410   49.5310   91.0100 N.pl3 182  ARG182      0.1354
     72  NH2       -1.6420   47.8620   90.4970 N.pl3 182  ARG182      0.1354
     73  N          5.4560   46.8000   90.3530 N.am  183  TYR183     -0.1976
     74  CA         6.2410   46.6390   91.5740 C.3   183  TYR183      0.1639
     75  C          7.7020   46.2940   91.2920 C.2   183  TYR183      0.2290
     76  O          8.5720   46.5160   92.1290 O.2   183  TYR183     -0.2864
     77  CB         5.6000   45.5900   92.4910 C.3   183  TYR183      0.0560
     78  CG         4.4070   46.1250   93.2690 C.ar  183  TYR183     -0.0198
     79  CD1        3.1440   46.2430   92.6770 C.ar  183  TYR183     -0.0009
     80  CD2        4.5500   46.5410   94.5970 C.ar  183  TYR183     -0.0009
     81  CE1        2.0610   46.7580   93.3870 C.ar  183  TYR183      0.0417
     82  CE2        3.4680   47.0610   95.3150 C.ar  183  TYR183      0.0417
     83  CZ         2.2310   47.1680   94.7050 C.ar  183  TYR183      0.1957
     84  OH         1.1790   47.7110   95.4110 O.3   183  TYR183     -0.2866
     85  N         11.6250   49.8030   91.2730 N.3   187  PHE187     -0.1241
     86  CA        12.0840   49.4490   92.6080 C.3   187  PHE187      0.1605
     87  C         12.9810   48.2140   92.7610 C.2   187  PHE187      0.2264
     88  O         13.8660   48.2020   93.6160 O.2   187  PHE187     -0.2867
     89  CB        10.8660   49.3300   93.5220 C.3   187  PHE187      0.0534
     90  CG         9.9740   50.5480   93.5020 C.ar  187  PHE187     -0.0203
     91  CD1       10.4620   51.7910   93.8880 C.ar  187  PHE187     -0.0042
     92  CD2        8.6410   50.4490   93.1000 C.ar  187  PHE187     -0.0042
     93  CE1        9.6400   52.9220   93.8770 C.ar  187  PHE187     -0.0003
     94  CE2        7.8110   51.5700   93.0860 C.ar  187  PHE187     -0.0003
     95  CZ         8.3150   52.8130   93.4780 C.ar  187  PHE187     -0.0000
     96  N          2.8570   53.4200   84.6330 N.3   213  ASP213     -0.1225
     97  CA         2.6620   53.9050   85.9870 C.3   213  ASP213      0.1805
     98  C          3.1250   55.3540   86.1210 C.2   213  ASP213      0.2597
     99  O          3.5570   55.9630   85.1490 O.2   213  ASP213     -0.2718
    100  CB         3.4470   53.0090   86.9480 C.3   213  ASP213      0.1424
    101  CG         2.8200   52.9350   88.3160 C.2   213  ASP213      0.3668
    102  OD1        1.9370   53.7600   88.6250 O.co2 213  ASP213     -0.2456
    103  OD2        3.2160   52.0490   89.0910 O.co2 213  ASP213     -0.2456
    104  N          3.0380   55.8890   87.3350 N.am  214  ASP214     -0.1974
    105  CA         3.4240   57.2650   87.6170 C.3   214  ASP214      0.1709
    106  C          4.8540   57.6210   87.2270 C.2   214  ASP214      0.2293
    107  O          5.8030   56.9280   87.5960 O.2   214  ASP214     -0.2864
    108  CB         3.2310   57.5730   89.1030 C.3   214  ASP214      0.1436
    109  CG         1.7710   57.7120   89.4870 C.2   214  ASP214      0.3671
    110  OD1        0.9030   57.2880   88.7000 O.co2 214  ASP214     -0.2456
    111  OD2        1.4870   58.2370   90.5850 O.co2 214  ASP214     -0.2456
    112  N          6.3770   60.1540   88.3070 N.3   216  GLU216     -0.1231
    113  CA         6.9810   60.6220   89.5470 C.3   216  GLU216      0.1699
    114  C          7.6510   59.5070   90.3260 C.2   216  GLU216      0.2592
    115  O          8.4700   59.7490   91.2080 O.2   216  GLU216     -0.2718
    116  CB         5.9320   61.3020   90.4210 C.3   216  GLU216      0.0402
    117  CG         5.2410   62.4920   89.7620 C.3   216  GLU216      0.1161
    118  CD         4.1970   62.0610   88.7550 C.2   216  GLU216      0.3649
    119  OE1        3.7480   60.8970   88.8460 O.co2 216  GLU216     -0.2457
    120  OE2        3.8180   62.8800   87.8880 O.co2 216  GLU216     -0.2457
    121  N          7.2930   58.2780   89.9940 N.am  217  LYS217     -0.1980
    122  CA         7.8660   57.1030   90.6320 C.3   217  LYS217      0.1596
    123  C          9.3510   56.9760   90.2410 C.2   217  LYS217      0.2287
    124  O         10.1400   56.3030   90.9170 O.2   217  LYS217     -0.2864
    125  CB         7.0690   55.8850   90.1820 C.3   217  LYS217      0.0298
    126  CG         7.7500   54.5800   90.3900 C.3   217  LYS217      0.0038
    127  CD         7.0360   53.4970   89.6010 C.3   217  LYS217      0.0206
    128  CE         5.9300   52.8680   90.3930 C.3   217  LYS217      0.1093
    129  NZ         5.6550   51.5400   89.8200 N.3   217  LYS217     -0.1314
    130  N          9.1380   60.1850   94.1630 N.3   221  TRP221     -0.1228
    131  CA         8.7960   59.3820   95.3250 C.3   221  TRP221      0.1722
    132  C         10.0350   59.2100   96.1940 C.2   221  TRP221      0.2437
    133  O         11.1460   59.0080   95.6890 O.2   221  TRP221     -0.2733
    134  CB         8.2630   58.0260   94.8800 C.3   221  TRP221      0.0563
    135  CG         6.9340   58.1190   94.1960 C.ar  221  TRP221      0.0003
    136  CD1        6.3330   59.2490   93.7030 C.ar  221  TRP221      0.0946
    137  CD2        6.0520   57.0340   93.8960 C.ar  221  TRP221      0.0152
    138  NE1        5.1330   58.9280   93.1170 N.ar  221  TRP221     -0.2442
    139  CE2        4.9350   57.5770   93.2210 C.ar  221  TRP221      0.0810
    140  CE3        6.0970   55.6530   94.1320 C.ar  221  TRP221      0.0012
    141  CZ2        3.8740   56.7890   92.7830 C.ar  221  TRP221      0.0191
    142  CZ3        5.0320   54.8690   93.6920 C.ar  221  TRP221      0.0001
    143  CH2        3.9400   55.4420   93.0270 C.ar  221  TRP221      0.0015
    144  N          9.8630   59.2980   97.5200 N.am  222  PRO222     -0.2729
    145  CA        10.9750   59.1570   98.4640 C.3   222  PRO222      0.1401
    146  C         11.9200   58.0080   98.1500 C.2   222  PRO222      0.2269
    147  O         11.4970   56.8590   98.0120 O.2   222  PRO222     -0.2865
    148  CB        10.2700   58.9960   99.8110 C.3   222  PRO222      0.0296
    149  CG         8.8990   58.4890   99.4380 C.3   222  PRO222      0.0237
    150  CD         8.5780   59.3140   98.2340 C.3   222  PRO222      0.0939
    151  N         -7.4400   50.0970   89.7910 N.3   272  TYR272     -0.1241
    152  CA        -6.3050   49.2190   90.0630 C.3   272  TYR272      0.1605
    153  C         -6.5700   48.6100   91.4480 C.2   272  TYR272      0.2264
    154  O         -7.2950   49.1950   92.2530 O.2   272  TYR272     -0.2867
    155  CB        -4.9770   49.9960   90.0020 C.3   272  TYR272      0.0534
    156  CG        -4.9480   51.3430   90.6960 C.ar  272  TYR272     -0.0201
    157  CD1       -4.3760   51.4830   91.9610 C.ar  272  TYR272     -0.0009
    158  CD2       -5.4320   52.4910   90.0630 C.ar  272  TYR272     -0.0009
    159  CE1       -4.2710   52.7410   92.5840 C.ar  272  TYR272      0.0417
    160  CE2       -5.3360   53.7540   90.6730 C.ar  272  TYR272      0.0417
    161  CZ        -4.7470   53.8730   91.9350 C.ar  272  TYR272      0.1957
    162  OH        -4.6040   55.1180   92.5350 O.3   272  TYR272     -0.2866
    163  N         -5.0740   48.2480   94.4750 N.3   274  GLU274     -0.1245
    164  CA        -4.8740   49.0350   95.6860 C.3   274  GLU274      0.1567
    165  C         -6.0670   49.9380   96.0080 C.2   274  GLU274      0.2260
    166  O         -6.3620   50.1990   97.1770 O.2   274  GLU274     -0.2867
    167  CB        -3.5920   49.8710   95.5510 C.3   274  GLU274      0.0388
    168  CG        -2.3130   49.0300   95.3760 C.3   274  GLU274      0.1160
    169  CD        -1.9250   48.7890   93.9150 C.2   274  GLU274      0.3649
    170  OE1       -2.8020   48.4210   93.0960 O.co2 274  GLU274     -0.2457
    171  OE2       -0.7260   48.9600   93.5860 O.co2 274  GLU274     -0.2457
    172  N         -8.8560   51.6010   99.6510 N.3   278  TRP278     -0.1241
    173  CA        -9.1440   52.9790  100.0100 C.3   278  TRP278      0.1605
    174  C        -10.5990   53.4070   99.8430 C.2   278  TRP278      0.2264
    175  O        -11.1320   54.1230  100.6880 O.2   278  TRP278     -0.2867
    176  CB        -8.2340   53.9130   99.2020 C.3   278  TRP278      0.0550
    177  CG        -6.7830   53.5400   99.2540 C.ar  278  TRP278      0.0003
    178  CD1       -6.0970   53.0830  100.3400 C.ar  278  TRP278      0.0946
    179  CD2       -5.8340   53.6050   98.1790 C.ar  278  TRP278      0.0152
    180  NE1       -4.7840   52.8560  100.0130 N.ar  278  TRP278     -0.2442
    181  CE2       -4.5930   53.1670   98.6920 C.ar  278  TRP278      0.0810
    182  CE3       -5.9120   53.9910   96.8340 C.ar  278  TRP278      0.0012
    183  CZ2       -3.4370   53.1010   97.9100 C.ar  278  TRP278      0.0191
    184  CZ3       -4.7630   53.9270   96.0550 C.ar  278  TRP278      0.0001
    185  CH2       -3.5350   53.4840   96.6000 C.ar  278  TRP278      0.0015
    186  N         -7.9160   64.6770   92.2850 N.3   354  ASP354     -0.1239
    187  CA        -7.1950   64.5080   93.5400 C.3   354  ASP354      0.1674
    188  C         -7.8600   64.9150   94.8590 C.2   354  ASP354      0.2266
    189  O         -7.8940   64.1240   95.8070 O.2   354  ASP354     -0.2867
    190  CB        -5.8240   65.1670   93.3960 C.3   354  ASP354      0.1410
    191  CG        -5.0480   64.6220   92.2050 C.2   354  ASP354      0.3668
    192  OD1       -4.1860   63.7400   92.3940 O.co2 354  ASP354     -0.2456
    193  OD2       -5.3180   65.0570   91.0700 O.co2 354  ASP354     -0.2456
    194  N        -10.7970   62.5510   96.7610 N.3   357  TRP357     -0.1241
    195  CA       -10.6190   61.2730   97.4380 C.3   357  TRP357      0.1605
    196  C         -9.3440   61.1970   98.2590 C.2   357  TRP357      0.2264
    197  O         -8.5330   62.1200   98.2650 O.2   357  TRP357     -0.2867
    198  CB       -10.6390   60.1260   96.4210 C.3   357  TRP357      0.0550
    199  CG        -9.4930   60.1540   95.4700 C.ar  357  TRP357      0.0003
    200  CD1       -9.2920   61.0410   94.4530 C.ar  357  TRP357      0.0946
    201  CD2       -8.3780   59.2620   95.4520 C.ar  357  TRP357      0.0152
    202  NE1       -8.1220   60.7580   93.8020 N.ar  357  TRP357     -0.2442
    203  CE2       -7.5370   59.6680   94.3940 C.ar  357  TRP357      0.0810
    204  CE3       -8.0050   58.1560   96.2250 C.ar  357  TRP357      0.0012
    205  CZ2       -6.3420   59.0050   94.0870 C.ar  357  TRP357      0.0191
    206  CZ3       -6.8150   57.4980   95.9200 C.ar  357  TRP357      0.0001
    207  CH2       -6.0000   57.9260   94.8610 C.ar  357  TRP357      0.0015
    208  N         -3.5670   56.7580  100.5710 N.3   360  VAL360     -0.1231
    209  CA        -2.7110   56.5710  101.7360 C.3   360  VAL360      0.1692
    210  C         -2.2740   57.9240  102.2910 C.2   360  VAL360      0.2592
    211  O         -1.9320   58.0520  103.4700 O.2   360  VAL360     -0.2718
    212  CB        -1.4640   55.7360  101.3640 C.3   360  VAL360      0.0266
    213  CG1       -0.6950   56.4200  100.2500 C.3   360  VAL360      0.0020
    214  CG2       -0.5860   55.5390  102.5850 C.3   360  VAL360      0.0020
    215  N         -2.3120   58.9350  101.4270 N.am  361  PHE361     -0.1976
    216  CA        -1.9130   60.2880  101.7970 C.3   361  PHE361      0.1639
    217  C         -2.4960   61.3520  100.8690 C.2   361  PHE361      0.2290
    218  O         -2.8230   61.0840   99.7100 O.2   361  PHE361     -0.2864
    219  CB        -0.3820   60.4060  101.7690 C.3   361  PHE361      0.0560
    220  CG         0.1220   61.8290  101.7800 C.ar  361  PHE361     -0.0200
    221  CD1        0.2660   62.5280  102.9790 C.ar  361  PHE361     -0.0042
    222  CD2        0.4140   62.4850  100.5840 C.ar  361  PHE361     -0.0042
    223  CE1        0.6940   63.8570  102.9850 C.ar  361  PHE361     -0.0003
    224  CE2        0.8400   63.8110  100.5790 C.ar  361  PHE361     -0.0003
    225  CZ         0.9800   64.4990  101.7820 C.ar  361  PHE361     -0.0000
    226  N         -4.6970   64.0950   98.9370 N.3   363  GLY363     -0.1225
    227  CA        -6.0260   64.1470   98.3680 C.3   363  GLY363      0.1811
    228  C         -6.9130   65.1760   99.0480 C.2   363  GLY363      0.2280
    229  O         -6.4990   66.3080   99.3210 O.2   363  GLY363     -0.2866
    230  N          6.3460   58.9790  105.2190 N.3   605  GLU605     -0.1245
    231  CA         7.4390   58.0700  105.5390 C.3   605  GLU605      0.1567
    232  C          8.2680   58.7350  106.6290 C.2   605  GLU605      0.2260
    233  O          9.0790   58.0920  107.2940 O.2   605  GLU605     -0.2867
    234  CB         8.3030   57.8000  104.3050 C.3   605  GLU605      0.0388
    235  CG         7.5140   57.3310  103.0900 C.3   605  GLU605      0.1160
    236  CD         8.3690   56.5710  102.0920 C.2   605  GLU605      0.3649
    237  OE1        9.5190   56.9900  101.8510 O.co2 605  GLU605     -0.2457
    238  OE2        7.8870   55.5580  101.5420 O.co2 605  GLU605     -0.2457
@<TRIPOS>BOND
     1    28    29    1
     2    29    32    1
     3    29    30    1
     4    32    33    1
     5    30    31    2
     6    33    35   ar
     7    33    34   ar
     8    38    35   ar
     9    38    40   ar
    10    35    37   ar
    11    34    36   ar
    12     1     2    1
    13    40    41   ar
    14     2     5    1
    15     2     3    1
    16     5     6    1
    17     7     6   ar
    18     7     9   ar
    19    37    36   ar
    20    37    39   ar
    21     3     4    2
    22    96    97    1
    23    41    39   ar
    24     6     8   ar
    25    99    98    2
    26     9    10   ar
    27    56    55    1
    28    56    57    1
    29    97    98    1
    30    97   100    1
    31    52    55    1
    32    52    53    1
    33    52    51    1
    34    98   104   am
    35    11    12    1
    36     8    10   ar
    37    57    58    1
    38    53    54    2
    39    12    15    1
    40    12    13    1
    41    51    44   am
    42    15    16    1
    43   100   101    1
    44    58    59    2
    45    17    16   ar
    46    17    19   ar
    47   106   107    2
    48   106   105    1
    49   104   105    1
    50    42    43    1
    51    16    18   ar
    52   105   108    1
    53    59    60    1
    54    59    61    1
    55    67    68    1
    56    67    66    1
    57    62    63    1
    58   120   118   ar
    59    13    14    2
    60    44    43    1
    61    44    45    2
    62    19    20   ar
    63   112   113    1
    64   101   102   ar
    65   101   103   ar
    66    68    69    1
    67    43    46    1
    68    63    66    1
    69    63    64    1
    70   110   109   ar
    71   118   119   ar
    72   118   117    1
    73    18    20   ar
    74    69    70    2
    75   108   109    1
    76   109   111   ar
    77   113   114    1
    78   113   116    1
    79    46    47    1
    80   127   126    1
    81   127   128    1
    82   117   116    1
    83   151   152    1
    84   129   128    1
    85    64    73   am
    86    64    65    2
    87   121   114   am
    88   121   122    1
    89   155   152    1
    90   155   156    1
    91   152   153    1
    92   158   160   ar
    93   158   156   ar
    94    70    72    1
    95    70    71    1
    96   125   126    1
    97   125   122    1
    98   123   122    1
    99   123   124    2
   100    47    48    1
   101   114   115    2
   102    21    22    1
   103    21    27    1
   104    73    74    1
   105    22    23    1
   106    22    25    1
   107    23    24    2
   108   160   161   ar
   109   156   157   ar
   110    48    50   ar
   111    48    49   ar
   112   193   191   ar
   113    85    86    1
   114    75    74    1
   115    75    76    2
   116   153   154    2
   117    27    26    1
   118    74    77    1
   119    25    26    1
   120   161   162    1
   121   161   159   ar
   122   157   159   ar
   123   191   192   ar
   124   191   190    1
   125   186   187    1
   126    77    78    1
   127    86    87    1
   128    86    89    1
   129    79    78   ar
   130    79    81   ar
   131    87    88    2
   132   141   143   ar
   133   141   139   ar
   134   143   142   ar
   135    94    92   ar
   136    94    95   ar
   137   170   169   ar
   138    92    90   ar
   139   138   139   ar
   140   138   136   ar
   141   139   137   ar
   142    78    80   ar
   143    81    83   ar
   144   190   187    1
   145    95    93   ar
   146    90    89    1
   147    90    91   ar
   148   187   188    1
   149   171   169   ar
   150   142   140   ar
   151   136   135   ar
   152   202   203   ar
   153   202   200   ar
   154    93    91   ar
   155   137   140   ar
   156   137   135   ar
   157   169   168    1
   158   205   203   ar
   159   205   207   ar
   160   130   131    1
   161   135   134    1
   162   203   201   ar
   163   200   199   ar
   164   163   164    1
   165    80    82   ar
   166    83    82   ar
   167    83    84    1
   168   188   189    2
   169   207   206   ar
   170   134   131    1
   171   131   132    1
   172   168   167    1
   173   201   199   ar
   174   201   204   ar
   175   199   198    1
   176   167   164    1
   177   164   165    1
   178   133   132    2
   179   206   204   ar
   180   165   166    2
   181   184   185   ar
   182   184   182   ar
   183   132   144   am
   184   198   195    1
   185   185   183   ar
   186   194   195    1
   187   182   179   ar
   188   195   196    1
   189   144   150    1
   190   144   145    1
   191   183   181   ar
   192   147   146    2
   193   146   145    1
   194   179   181   ar
   195   179   177   ar
   196   150   149    1
   197   196   197    2
   198   227   226    1
   199   227   228    1
   200   145   148    1
   201   181   180   ar
   202   228   229    2
   203   176   177    1
   204   176   173    1
   205   177   178   ar
   206   149   148    1
   207   172   173    1
   208   218   217    2
   209   174   173    1
   210   174   175    2
   211   180   178   ar
   212   213   212    1
   213   208   209    1
   214   224   222   ar
   215   224   225   ar
   216   222   220   ar
   217   217   216    1
   218   212   209    1
   219   212   214    1
   220   215   216    1
   221   215   210   am
   222   238   236   ar
   223   209   210    1
   224   219   220    1
   225   219   216    1
   226   220   221   ar
   227   225   223   ar
   228   237   236   ar
   229   236   235    1
   230   210   211    2
   231   221   223   ar
   232   235   234    1
   233   234   231    1
   234   230   231    1
   235   231   232    1
   236   232   233    2
