@<TRIPOS>MOLECULE
tmp/1k21B02.pdb
 235 234 0 0 0
SMALL
GASTEIGER

@<TRIPOS>ATOM
      1  N         22.5940   -5.9800   18.1420 N.3    43  HIS43      -0.1241
      2  CA        22.4420   -7.3160   17.5900 C.3    43  HIS43       0.1621
      3  C         21.6850   -7.3540   16.2670 C.2    43  HIS43       0.2264
      4  O         21.6370   -8.3880   15.6120 O.2    43  HIS43      -0.2867
      5  CB        21.7900   -8.2650   18.6110 C.3    43  HIS43       0.0745
      6  CG        20.3090   -8.1030   18.7460 C.ar   43  HIS43       0.0817
      7  ND1       19.7280   -7.3360   19.7330 N.ar   43  HIS43      -0.2268
      8  CD2       19.2880   -8.6200   18.0210 C.ar   43  HIS43       0.1154
      9  CE1       18.4140   -7.3890   19.6110 C.ar   43  HIS43       0.1986
     10  NE2       18.1210   -8.1630   18.5810 N.ar   43  HIS43      -0.2212
     11  N         25.9960   -9.9600   15.1010 N.3    47  TYR47      -0.1241
     12  CA        25.7340  -11.0910   15.9710 C.3    47  TYR47       0.1605
     13  C         26.4140  -12.3380   15.4130 C.2    47  TYR47       0.2264
     14  O         25.7890  -13.1600   14.7470 O.2    47  TYR47      -0.2867
     15  CB        24.2390  -11.3340   16.1250 C.3    47  TYR47       0.0534
     16  CG        23.9390  -12.2180   17.3050 C.ar   47  TYR47      -0.0201
     17  CD1       24.3240  -11.8380   18.5920 C.ar   47  TYR47      -0.0009
     18  CD2       23.3300  -13.4600   17.1370 C.ar   47  TYR47      -0.0009
     19  CE1       24.1160  -12.6810   19.6850 C.ar   47  TYR47       0.0417
     20  CE2       23.1200  -14.3090   18.2220 C.ar   47  TYR47       0.0417
     21  CZ        23.5160  -13.9120   19.4930 C.ar   47  TYR47       0.1957
     22  OH        23.3110  -14.7530   20.5640 O.3    47  TYR47      -0.2866
     23  N         25.1900  -16.0970   14.8600 N.3    50  TRP50      -0.1241
     24  CA        24.3320  -16.3880   13.7140 C.3    50  TRP50       0.1605
     25  C         24.9610  -15.8710   12.4230 C.2    50  TRP50       0.2264
     26  O         24.2940  -15.7730   11.3890 O.2    50  TRP50      -0.2867
     27  CB        22.9600  -15.7290   13.8930 C.3    50  TRP50       0.0550
     28  CG        22.1420  -16.2640   15.0340 C.ar   50  TRP50       0.0003
     29  CD1       22.4110  -17.3620   15.8020 C.ar   50  TRP50       0.0946
     30  CD2       20.8900  -15.7450   15.5030 C.ar   50  TRP50       0.0152
     31  NE1       21.4020  -17.5610   16.7170 N.ar   50  TRP50      -0.2442
     32  CE2       20.4560  -16.5820   16.5540 C.ar   50  TRP50       0.0810
     33  CE3       20.0910  -14.6520   15.1330 C.ar   50  TRP50       0.0012
     34  CZ2       19.2570  -16.3620   17.2410 C.ar   50  TRP50       0.0191
     35  CZ3       18.8980  -14.4340   15.8160 C.ar   50  TRP50       0.0001
     36  CH2       18.4950  -15.2870   16.8580 C.ar   50  TRP50       0.0015
     37  N         25.8600  -12.8790   11.6710 N.3    52  LYS52      -0.1245
     38  CA        25.2850  -11.6140   11.2330 C.3    52  LYS52       0.1561
     39  C         26.3380  -10.5300   11.4150 C.2    52  LYS52       0.2260
     40  O         26.8910  -10.3740   12.5020 O.2    52  LYS52      -0.2867
     41  CB        24.0450  -11.2590   12.0570 C.3    52  LYS52       0.0271
     42  CG        23.4230   -9.9150   11.6750 C.3    52  LYS52       0.0035
     43  CD        22.2550   -9.5460   12.5860 C.3    52  LYS52       0.0206
     44  CE        21.1210  -10.5590   12.4880 C.3    52  LYS52       0.1093
     45  NZ        20.0550  -10.2800   13.4910 N.3    52  LYS52      -0.1314
     46  N         28.1240   -9.3630   22.7570 N.3    92  TRP92      -0.1241
     47  CA        27.3370  -10.3640   22.0450 C.3    92  TRP92       0.1605
     48  C         27.7020  -11.7810   22.4700 C.2    92  TRP92       0.2264
     49  O         26.9900  -12.7320   22.1550 O.2    92  TRP92      -0.2867
     50  CB        27.5390  -10.2360   20.5340 C.3    92  TRP92       0.0550
     51  CG        28.9730  -10.1790   20.1110 C.ar   92  TRP92       0.0003
     52  CD1       29.7230   -9.0550   19.9070 C.ar   92  TRP92       0.0946
     53  CD2       29.8350  -11.2920   19.8390 C.ar   92  TRP92       0.0152
     54  NE1       30.9990   -9.3980   19.5210 N.ar   92  TRP92      -0.2442
     55  CE2       31.0950  -10.7640   19.4710 C.ar   92  TRP92       0.0810
     56  CE3       29.6660  -12.6850   19.8700 C.ar   92  TRP92       0.0012
     57  CZ2       32.1850  -11.5820   19.1350 C.ar   92  TRP92       0.0191
     58  CZ3       30.7510  -13.5000   19.5340 C.ar   92  TRP92       0.0001
     59  CH2       31.9930  -12.9420   19.1720 C.ar   92  TRP92       0.0015
     60  N         28.0010  -12.9760   25.6730 N.3    94  GLU94      -0.1231
     61  CA        27.2760  -13.4690   26.8320 C.3    94  GLU94       0.1699
     62  C         25.8170  -13.0790   27.0620 C.2    94  GLU94       0.2592
     63  O         24.9430  -13.9470   27.1170 O.2    94  GLU94      -0.2718
     64  CB        28.0700  -13.1230   28.0970 C.3    94  GLU94       0.0402
     65  CG        27.2740  -13.2860   29.3780 C.3    94  GLU94       0.1161
     66  CD        28.0160  -12.7900   30.6040 C.2    94  GLU94       0.3649
     67  OE1       28.7660  -11.7950   30.4900 O.co2  94  GLU94      -0.2457
     68  OE2       27.8340  -13.3860   31.6840 O.co2  94  GLU94      -0.2457
     69  N         25.5490  -11.7860   27.2100 N.am   95  ASN95      -0.1960
     70  CA        24.1900  -11.3570   27.5300 C.3    95  ASN95       0.1819
     71  C         23.6700  -10.1350   26.7960 C.2    95  ASN95       0.2621
     72  O         22.6910   -9.5340   27.2340 O.2    95  ASN95      -0.2715
     73  CB        24.1140  -11.0790   29.0260 C.3    95  ASN95       0.1195
     74  CG        25.1680  -10.0860   29.4700 C.2    95  ASN95       0.2630
     75  OD1       25.9380   -9.5840   28.6490 O.2    95  ASN95      -0.2716
     76  ND2       25.2130   -9.7950   30.7660 N.am   95  ASN95      -0.0877
     77  N         24.3170   -9.7630   25.6980 N.am   96  LEU96      -0.1977
     78  CA        23.8920   -8.5980   24.9280 C.3    96  LEU96       0.1596
     79  C         24.0010   -7.2950   25.7270 C.2    96  LEU96       0.2287
     80  O         23.2190   -6.3590   25.5230 O.2    96  LEU96      -0.2864
     81  CB        22.4530   -8.7920   24.4280 C.3    96  LEU96       0.0297
     82  CG        22.2590   -9.3180   23.0020 C.3    96  LEU96       0.0022
     83  CD1       23.2870  -10.3840   22.6760 C.3    96  LEU96       0.0001
     84  CD2       20.8350   -9.8560   22.8480 C.3    96  LEU96       0.0001
     85  N          4.9670  -16.6260   19.4780 N.3   146  GLU146     -0.1245
     86  CA         6.2820  -17.2420   19.5940 C.3   146  GLU146      0.1567
     87  C          6.5600  -18.2300   18.4600 C.2   146  GLU146      0.2260
     88  O          7.6620  -18.2590   17.9080 O.2   146  GLU146     -0.2867
     89  CB         6.4230  -17.9500   20.9440 C.3   146  GLU146      0.0388
     90  CG         7.7070  -18.7510   21.0620 C.3   146  GLU146      0.1160
     91  CD         7.9830  -19.2360   22.4690 C.2   146  GLU146      0.3649
     92  OE1        8.8360  -20.1360   22.6140 O.co2 146  GLU146     -0.2457
     93  OE2        7.3670  -18.7200   23.4260 O.co2 146  GLU146     -0.2457
     94  N         20.1600  -15.7690   32.6720 N.3   172  ILE172     -0.1245
     95  CA        21.0680  -14.8100   32.0490 C.3   172  ILE172      0.1561
     96  C         21.4610  -13.7460   33.0630 C.2   172  ILE172      0.2260
     97  O         20.6310  -13.3040   33.8620 O.2   172  ILE172     -0.2867
     98  CB        20.4060  -14.0960   30.8380 C.3   172  ILE172      0.0252
     99  CG1       20.0210  -15.1170   29.7630 C.3   172  ILE172      0.0019
    100  CG2       21.3590  -13.0490   30.2650 C.3   172  ILE172      0.0019
    101  CD1       21.2010  -15.8100   29.1070 C.3   172  ILE172      0.0001
    102  N          4.2240   -8.7030   24.8710 N.3   192  ASP192     -0.1225
    103  CA         5.6770   -8.8030   24.8120 C.3   192  ASP192      0.1805
    104  C          6.1060   -8.5510   23.3770 C.2   192  ASP192      0.2598
    105  O          5.2870   -8.6240   22.4570 O.2   192  ASP192     -0.2718
    106  CB         6.1150  -10.2170   25.2200 C.3   192  ASP192      0.1424
    107  CG         7.6230  -10.3460   25.4110 C.2   192  ASP192      0.3668
    108  OD1        8.1160  -11.4980   25.4750 O.co2 192  ASP192     -0.2456
    109  OD2        8.3150   -9.3130   25.5140 O.co2 192  ASP192     -0.2456
    110  N          7.3820   -8.2320   23.1960 N.am  193  ALA193     -0.1966
    111  CA         7.9300   -8.0410   21.8680 C.3   193  ALA193      0.1728
    112  C          8.2740   -9.4690   21.4630 C.2   193  ALA193      0.2616
    113  O          8.2430  -10.3700   22.2990 O.2   193  ALA193     -0.2715
    114  CB         9.1950   -7.1900   21.9240 C.3   193  ALA193      0.0334
    115  N          8.6020   -9.6850   20.2000 N.am  194  CYS194     -0.1954
    116  CA         8.9390  -11.0310   19.7550 C.3   194  CYS194      0.1843
    117  C          9.9430  -10.9390   18.6080 C.2   194  CYS194      0.2625
    118  O         10.4250   -9.8490   18.2870 O.2   194  CYS194     -0.2714
    119  CB         7.6600  -11.7480   19.3040 C.3   194  CYS194      0.0997
    120  SG         7.8150  -13.5400   19.0370 S.3   194  CYS194     -0.0797
    121  N         10.2730  -12.0790   18.0050 N.am  195  GLU195     -0.1977
    122  CA        11.2050  -12.0980   16.8830 C.3   195  GLU195      0.1602
    123  C         10.7800  -11.0620   15.8470 C.2   195  GLU195      0.2287
    124  O          9.6070  -10.9900   15.4870 O.2   195  GLU195     -0.2864
    125  CB        11.2280  -13.4880   16.2410 C.3   195  GLU195      0.0415
    126  CG        11.8040  -13.5090   14.8300 C.3   195  GLU195      0.1163
    127  CD        13.2500  -13.0460   14.7640 C.2   195  GLU195      0.3649
    128  OE1       13.7020  -12.6730   13.6570 O.co2 195  GLU195     -0.2457
    129  OE2       13.9400  -13.0660   15.8090 O.co2 195  GLU195     -0.2457
    130  N         13.1380   -6.7560   17.4360 N.3   198  SER198     -0.1217
    131  CA        14.4760   -6.3440   17.8510 C.3   198  SER198      0.1889
    132  C         14.8390   -4.9660   17.3200 C.2   198  SER198      0.2288
    133  O         14.6010   -4.6600   16.1480 O.2   198  SER198     -0.2866
    134  CB        15.5330   -7.3230   17.3190 C.3   198  SER198      0.2089
    135  OG        15.3870   -8.6140   17.8610 O.3   198  SER198     -0.2183
    136  N         14.3060   -2.7550   22.1920 N.3   218  VAL218     -0.1231
    137  CA        13.9850   -4.1780   22.2920 C.3   218  VAL218      0.1692
    138  C         15.2990   -4.9370   22.1280 C.2   218  VAL218      0.2593
    139  O         15.9420   -4.8600   21.0790 O.2   218  VAL218     -0.2718
    140  CB        12.9800   -4.6070   21.1890 C.3   218  VAL218      0.0266
    141  CG1       12.6860   -6.1080   21.2950 C.3   218  VAL218      0.0020
    142  CG2       11.6880   -3.8040   21.3270 C.3   218  VAL218      0.0020
    143  N         15.7040   -5.6620   23.1690 N.am  219  SER219     -0.1938
    144  CA        16.9730   -6.3850   23.1360 C.3   219  SER219      0.2055
    145  C         16.8440   -7.9130   23.1290 C.2   219  SER219      0.2643
    146  O         17.2380   -8.5710   22.1620 O.2   219  SER219     -0.2714
    147  CB        17.8410   -5.9300   24.3220 C.3   219  SER219      0.2130
    148  OG        19.1190   -6.5460   24.3150 O.3   219  SER219     -0.2179
    149  N         16.3040   -8.4890   24.1950 N.am  220  TRP220     -0.1959
    150  CA        16.1660   -9.9410   24.2360 C.3   220  TRP220      0.1771
    151  C         15.0430  -10.4420   25.1190 C.2   220  TRP220      0.2620
    152  O         14.4590   -9.6940   25.9000 O.2   220  TRP220     -0.2715
    153  CB        17.4750  -10.5980   24.6850 C.3   220  TRP220      0.0590
    154  CG        17.9640  -10.1780   26.0530 C.ar  220  TRP220      0.0006
    155  CD1       18.7330   -9.0890   26.3480 C.ar  220  TRP220      0.0946
    156  CD2       17.7670  -10.8770   27.2930 C.ar  220  TRP220      0.0152
    157  NE1       19.0350   -9.0680   27.6880 N.ar  220  TRP220     -0.2442
    158  CE2       18.4550  -10.1540   28.2930 C.ar  220  TRP220      0.0810
    159  CE3       17.0800  -12.0450   27.6550 C.ar  220  TRP220      0.0012
    160  CZ2       18.4800  -10.5620   29.6370 C.ar  220  TRP220      0.0191
    161  CZ3       17.1030  -12.4530   28.9970 C.ar  220  TRP220      0.0001
    162  CH2       17.8020  -11.7080   29.9670 C.ar  220  TRP220      0.0015
    163  N         14.7470  -11.7290   24.9650 N.am  221  GLY221     -0.1940
    164  CA        13.7090  -12.3760   25.7410 C.3   221  GLY221      0.2014
    165  C         13.8250  -13.8750   25.5290 C.2   221  GLY221      0.2639
    166  O         14.4740  -14.3260   24.5880 O.2   221  GLY221     -0.2714
    167  N         13.2040  -14.6500   26.4010 N.am  222  GLU222     -0.1963
    168  CA        13.2470  -16.1000   26.2930 C.3   222  GLU222      0.1733
    169  C         11.8410  -16.5420   25.9350 C.2   222  GLU222      0.2617
    170  O         10.9510  -16.5810   26.7810 O.2   222  GLU222     -0.2715
    171  CB        13.7180  -16.6850   27.6230 C.3   222  GLU222      0.0429
    172  CG        15.1960  -16.4040   27.8700 C.3   222  GLU222      0.1163
    173  CD        15.5670  -16.3370   29.3390 C.2   222  GLU222      0.3649
    174  OE1       16.7450  -16.5940   29.6450 O.co2 222  GLU222     -0.2457
    175  OE2       14.6960  -16.0120   30.1770 O.co2 222  GLU222     -0.2457
    176  N         11.6550  -16.8740   24.6640 N.am  223  GLY223     -0.1940
    177  CA        10.3360  -17.2300   24.1890 C.3   223  GLY223      0.2014
    178  C          9.6540  -15.8810   24.0290 C.2   223  GLY223      0.2639
    179  O         10.3300  -14.8440   24.0570 O.2   223  GLY223     -0.2714
    180  N          8.3370  -15.8760   23.8630 N.am  224  CYS224     -0.1967
    181  CA         7.6030  -14.6270   23.7220 C.3   224  CYS224      0.1712
    182  C          6.2940  -14.6900   24.4830 C.2   224  CYS224      0.2296
    183  O          5.5010  -15.6160   24.3050 O.2   224  CYS224     -0.2864
    184  CB         7.3200  -14.3250   22.2520 C.3   224  CYS224      0.0983
    185  SG         8.7950  -14.1670   21.2590 S.3   224  CYS224     -0.0798
    186  N          5.7130  -15.3970   27.5550 N.3   226  ARG226     -0.1245
    187  CA         5.5740  -16.5590   28.4240 C.3   226  ARG226      0.1563
    188  C          5.3600  -16.1150   29.8620 C.2   226  ARG226      0.2260
    189  O          5.9660  -15.1430   30.3120 O.2   226  ARG226     -0.2867
    190  CB         6.8240  -17.4380   28.3750 C.3   226  ARG226      0.0307
    191  CG         7.0630  -18.1550   27.0650 C.3   226  ARG226      0.0489
    192  CD         8.2010  -19.1370   27.2430 C.3   226  ARG226      0.2205
    193  NE         8.7170  -19.6500   25.9790 N.pl3 226  ARG226     -0.0865
    194  CZ         9.8110  -20.3980   25.8800 C.cat 226  ARG226      0.5346
    195  NH1       10.2230  -20.8260   24.6950 N.pl3 226  ARG226      0.1354
    196  NH2       10.4960  -20.7170   26.9690 N.pl3 226  ARG226      0.1354
    197  N          9.9900  -12.1490   31.0390 N.3   230  TYR230     -0.1227
    198  CA         9.8580  -10.7360   30.7140 C.3   230  TYR230      0.1736
    199  C         10.7370  -10.3480   29.5420 C.2   230  TYR230      0.2596
    200  O         11.6810  -11.0520   29.1990 O.2   230  TYR230     -0.2718
    201  CB        10.2320   -9.8760   31.9240 C.3   230  TYR230      0.0548
    202  CG         9.4010  -10.1960   33.1360 C.ar  230  TYR230     -0.0200
    203  CD1        9.7560  -11.2380   33.9920 C.ar  230  TYR230     -0.0009
    204  CD2        8.2040   -9.5240   33.3730 C.ar  230  TYR230     -0.0009
    205  CE1        8.9310  -11.6090   35.0520 C.ar  230  TYR230      0.0417
    206  CE2        7.3700   -9.8840   34.4270 C.ar  230  TYR230      0.0417
    207  CZ         7.7390  -10.9300   35.2600 C.ar  230  TYR230      0.1957
    208  OH         6.8990  -11.3130   36.2810 O.3   230  TYR230     -0.2866
    209  N         10.4060   -9.2250   28.9200 N.am  231  GLY231     -0.1942
    210  CA        11.2000   -8.7530   27.8100 C.3   231  GLY231      0.2014
    211  C         12.2750   -7.8630   28.3990 C.2   231  GLY231      0.2639
    212  O         12.0270   -7.1460   29.3740 O.2   231  GLY231     -0.2714
    213  N         13.4750   -7.9230   27.8350 N.am  232  PHE232     -0.1959
    214  CA        14.5600   -7.0910   28.3260 C.3   232  PHE232      0.1771
    215  C         14.8850   -6.0330   27.2980 C.2   232  PHE232      0.2619
    216  O         14.8840   -6.2950   26.0950 O.2   232  PHE232     -0.2715
    217  CB        15.7850   -7.9390   28.6610 C.3   232  PHE232      0.0574
    218  CG        15.6270   -8.7260   29.9230 C.ar  232  PHE232     -0.0200
    219  CD1       14.7830   -9.8300   29.9650 C.ar  232  PHE232     -0.0042
    220  CD2       16.2730   -8.3290   31.0890 C.ar  232  PHE232     -0.0042
    221  CE1       14.5780  -10.5300   31.1500 C.ar  232  PHE232     -0.0003
    222  CE2       16.0780   -9.0210   32.2860 C.ar  232  PHE232     -0.0003
    223  CZ        15.2270  -10.1230   32.3140 C.ar  232  PHE232     -0.0000
    224  N         15.1620   -4.8320   27.7890 N.am  233  TYR233     -0.1974
    225  CA        15.4350   -3.6980   26.9290 C.3   233  TYR233      0.1639
    226  C         16.7180   -2.9910   27.2720 C.2   233  TYR233      0.2290
    227  O         17.0990   -2.9100   28.4390 O.2   233  TYR233     -0.2864
    228  CB        14.2840   -2.6900   27.0400 C.3   233  TYR233      0.0560
    229  CG        12.9310   -3.2780   26.7270 C.ar  233  TYR233     -0.0198
    230  CD1       12.2720   -4.1020   27.6430 C.ar  233  TYR233     -0.0009
    231  CD2       12.3370   -3.0680   25.4830 C.ar  233  TYR233     -0.0009
    232  CE1       11.0600   -4.7080   27.3230 C.ar  233  TYR233      0.0417
    233  CE2       11.1280   -3.6650   25.1550 C.ar  233  TYR233      0.0417
    234  CZ        10.4970   -4.4860   26.0750 C.ar  233  TYR233      0.1957
    235  OH         9.3170   -5.1000   25.7270 O.3   233  TYR233     -0.2866
@<TRIPOS>BOND
     1    38    39    1
     2    38    37    1
     3    38    41    1
     4    26    25    2
     5    39    40    2
     6    42    41    1
     7    42    43    1
     8    25    24    1
     9    44    43    1
    10    44    45    1
    11   128   127   ar
    12    24    27    1
    13    24    23    1
    14    27    28    1
    15    14    13    2
    16   127   126    1
    17   127   129   ar
    18   126   125    1
    19    28    30   ar
    20    28    29   ar
    21    11    12    1
    22    33    30   ar
    23    33    35   ar
    24    13    12    1
    25   124   123    2
    26    30    32   ar
    27     4     3    2
    28    29    31   ar
    29    35    36   ar
    30   123   122    1
    31    12    15    1
    32    15    16    1
    33   133   132    2
    34   125   122    1
    35     3     2    1
    36    32    31   ar
    37    32    34   ar
    38    36    34   ar
    39   122   121    1
    40    18    16   ar
    41    18    20   ar
    42    16    17   ar
    43   134   131    1
    44   134   135    1
    45   132   131    1
    46   130   131    1
    47     2     1    1
    48     2     5    1
    49    88    87    2
    50   121   117   am
    51     8    10   ar
    52     8     6   ar
    53    20    21   ar
    54   118   117    2
    55    87    86    1
    56    10     9   ar
    57    17    19   ar
    58   117   116    1
    59     5     6    1
    60     6     7   ar
    61   120   119    1
    62   120   185    1
    63    57    59   ar
    64    57    55   ar
    65    59    58   ar
    66   119   116    1
    67    55    54   ar
    68    55    53   ar
    69    85    86    1
    70    21    19   ar
    71    21    22    1
    72    54    52   ar
    73    58    56   ar
    74    86    89    1
    75     9     7   ar
    76   116   115    1
    77    53    56   ar
    78    53    51   ar
    79    52    51   ar
    80    51    50    1
    81   115   112   am
    82    50    47    1
    83    89    90    1
    84    90    91    1
    85   139   138    2
    86   140   141    1
    87   140   142    1
    88   140   137    1
    89   185   184    1
    90   112   111    1
    91   112   113    2
    92   111   114    1
    93   111   110    1
    94    47    48    1
    95    47    46    1
    96   138   137    1
    97   138   143   am
    98    49    48    2
    99   146   145    2
   100   136   137    1
   101   184   181    1
   102   105   104    2
   103    91    92   ar
   104    91    93   ar
   105    83    82    1
   106    84    82    1
   107    82    81    1
   108   145   144    1
   109   145   149   am
   110   144   143    1
   111   144   147    1
   112   110   104   am
   113   104   103    1
   114   181   180    1
   115   181   182    1
   116   180   178   am
   117   178   179    2
   118   178   177    1
   119   177   176    1
   120   149   150    1
   121   150   153    1
   122   150   151    1
   123   183   182    2
   124   148   147    1
   125    81    78    1
   126   166   165    2
   127   176   169   am
   128   153   154    1
   129   195   194    1
   130   103   102    1
   131   103   106    1
   132    78    77    1
   133    78    79    1
   134   163   151   am
   135   163   164    1
   136   151   152    2
   137   233   231   ar
   138   233   234   ar
   139   106   107    1
   140   107   108   ar
   141   107   109   ar
   142   231   229   ar
   143    80    79    2
   144   165   164    1
   145   165   167   am
   146    60    61    1
   147    77    71   am
   148   235   234    1
   149   194   193    2
   150   194   196    1
   151   169   168    1
   152   169   170    2
   153   193   192    1
   154   154   155   ar
   155   154   156   ar
   156   234   232   ar
   157   216   215    2
   158   168   167    1
   159   168   171    1
   160   155   157   ar
   161   229   228    1
   162   229   230   ar
   163    71    72    2
   164    71    70    1
   165    61    62    1
   166    61    64    1
   167   225   228    1
   168   225   226    1
   169   225   224    1
   170    62    63    2
   171    62    69   am
   172   191   192    1
   173   191   190    1
   174    69    70    1
   175   226   227    2
   176   156   159   ar
   177   156   158   ar
   178   215   224   am
   179   215   214    1
   180   232   230   ar
   181    70    73    1
   182   186   187    1
   183   171   172    1
   184   159   161   ar
   185   157   158   ar
   186   210   211    1
   187   210   209    1
   188   213   214    1
   189   213   211   am
   190   172   173    1
   191    64    65    1
   192   158   160   ar
   193   214   217    1
   194   190   187    1
   195   211   212    2
   196   187   188    1
   197    75    74    2
   198   217   218    1
   199   209   199   am
   200   161   162   ar
   201    73    74    1
   202   101    99    1
   203   200   199    2
   204   173   174   ar
   205   173   175   ar
   206    65    66    1
   207    74    76   am
   208   199   198    1
   209   160   162   ar
   210    99    98    1
   211   188   189    2
   212   218   219   ar
   213   218   220   ar
   214   219   221   ar
   215   100    98    1
   216    67    66   ar
   217    66    68   ar
   218   198   197    1
   219   198   201    1
   220    98    95    1
   221   220   222   ar
   222   221   223   ar
   223   201   202    1
   224    95    94    1
   225    95    96    1
   226   222   223   ar
   227    96    97    2
   228   202   204   ar
   229   202   203   ar
   230   204   206   ar
   231   203   205   ar
   232   206   207   ar
   233   205   207   ar
   234   207   208    1
