@<TRIPOS>MOLECULE
tmp/1k27A00.pdb
 158 149 0 0 0
SMALL
GASTEIGER

@<TRIPOS>ATOM
      1  N         65.5750   12.2020   33.2380 N.3    10  THR10      -0.1218
      2  CA        64.3910   11.3520   33.3210 C.3    10  THR10       0.1862
      3  C         64.6470    9.9680   32.7270 C.2    10  THR10       0.2287
      4  O         64.9680    9.8390   31.5420 O.2    10  THR10      -0.2866
      5  CB        63.1990   11.9870   32.5730 C.3    10  THR10       0.1770
      6  OG1       62.9290   13.2870   33.1140 O.3    10  THR10      -0.2211
      7  CG2       61.9570   11.1180   32.7150 C.3    10  THR10       0.0375
      8  N         66.7530   14.7140   39.0710 N.3    53  HIS53      -0.1241
      9  CA        65.4550   14.8990   39.7160 C.3    53  HIS53       0.1621
     10  C         65.2960   14.0910   40.9900 C.2    53  HIS53       0.2264
     11  O         64.1880   13.9580   41.5130 O.2    53  HIS53      -0.2867
     12  CB        64.3500   14.5230   38.7310 C.3    53  HIS53       0.0745
     13  CG        64.3680   15.3400   37.4790 C.ar   53  HIS53       0.0817
     14  ND1       63.9250   16.6450   37.4380 N.ar   53  HIS53      -0.2268
     15  CD2       64.8220   15.0560   36.2360 C.ar   53  HIS53       0.1154
     16  CE1       64.1060   17.1290   36.2230 C.ar   53  HIS53       0.1986
     17  NE2       64.6490   16.1860   35.4740 N.ar   53  HIS53      -0.2212
     18  N         62.7250   10.7430   41.2510 N.3    57  HIS57      -0.1241
     19  CA        62.1370   11.7720   40.3990 C.3    57  HIS57       0.1621
     20  C         61.0440   12.5410   41.1220 C.2    57  HIS57       0.2264
     21  O         59.8740   12.5030   40.7350 O.2    57  HIS57      -0.2867
     22  CB        61.5600   11.1530   39.1300 C.3    57  HIS57       0.0745
     23  CG        61.4040   12.1340   38.0120 C.ar   57  HIS57       0.0817
     24  ND1       62.1740   12.0860   36.8700 N.ar   57  HIS57      -0.2268
     25  CD2       60.6080   13.2220   37.8830 C.ar   57  HIS57       0.1154
     26  CE1       61.8590   13.1020   36.0860 C.ar   57  HIS57       0.1986
     27  NE2       60.9120   13.8070   36.6780 N.ar   57  HIS57      -0.2212
     28  N         61.7120   20.3010   37.2160 N.3    61  PRO61      -0.2116
     29  CA        62.7950   21.0720   36.5980 C.3    61  PRO61       0.1372
     30  C         63.0250   22.4490   37.2170 C.2    61  PRO61       0.2244
     31  O         64.1640   22.8320   37.4750 O.2    61  PRO61      -0.2868
     32  CB        62.3650   21.1610   35.1330 C.3    61  PRO61       0.0268
     33  CG        61.6390   19.8730   34.9220 C.3    61  PRO61       0.0207
     34  CD        60.8100   19.7460   36.1890 C.3    61  PRO61       0.0892
     35  N         69.6190   13.8460   28.8690 N.3    85  THR85      -0.1203
     36  CA        68.3890   14.5890   29.0010 C.3    85  THR85       0.1994
     37  C         67.3790   14.1750   27.9530 C.2    85  THR85       0.2618
     38  O         67.7010   14.0620   26.7640 O.2    85  THR85      -0.2717
     39  CB        68.6230   16.1170   28.8970 C.3    85  THR85       0.1784
     40  OG1       67.3580   16.7920   28.9250 O.3    85  THR85      -0.2211
     41  CG2       69.3500   16.4710   27.6020 C.3    85  THR85       0.0376
     42  N         66.1600   13.9180   28.4130 N.am   86  ALA86      -0.1965
     43  CA        65.0670   13.5620   27.5220 C.3    86  ALA86       0.1728
     44  C         64.6320   14.8970   26.9310 C.2    86  ALA86       0.2616
     45  O         64.6680   15.9160   27.6200 O.2    86  ALA86      -0.2715
     46  CB        63.9210   12.9470   28.3160 C.3    86  ALA86       0.0334
     47  N         64.2210   14.8980   25.6670 N.am   87  CYS87      -0.1954
     48  CA        63.7980   16.1370   25.0320 C.3    87  CYS87       0.1843
     49  C         62.8110   15.8930   23.9040 C.2    87  CYS87       0.2626
     50  O         62.6900   14.7790   23.3890 O.2    87  CYS87      -0.2714
     51  CB        65.0130   16.8840   24.4770 C.3    87  CYS87       0.0997
     52  SG        65.9180   15.9540   23.2200 S.3    87  CYS87      -0.0797
     53  N         62.1010   16.9490   23.5320 N.am   88  GLY88      -0.1954
     54  CA        61.1490   16.8460   22.4490 C.3    88  GLY88       0.1869
     55  C         61.8730   17.2500   21.1860 C.2    88  GLY88       0.2309
     56  O         62.7650   18.1030   21.2260 O.2    88  GLY88      -0.2863
     57  N         62.6060   25.4370   28.3860 N.3   164  ILE164     -0.1245
     58  CA        61.4520   26.1520   28.9070 C.3   164  ILE164      0.1561
     59  C         61.3760   25.9700   30.4180 C.2   164  ILE164      0.2260
     60  O         61.9520   25.0310   30.9690 O.2   164  ILE164     -0.2867
     61  CB        60.1460   25.6480   28.2430 C.3   164  ILE164      0.0252
     62  CG1       59.9190   24.1680   28.5650 C.3   164  ILE164      0.0019
     63  CG2       60.2390   25.8540   26.7320 C.3   164  ILE164      0.0019
     64  CD1       58.6750   23.5600   27.9070 C.3   164  ILE164      0.0001
     65  N         54.0530   21.5030   29.4350 N.3   169  PHE169     -0.1241
     66  CA        54.6610   21.3510   28.1240 C.3   169  PHE169      0.1605
     67  C         54.2500   22.6190   27.3700 C.2   169  PHE169      0.2264
     68  O         53.3940   23.3680   27.8440 O.2   169  PHE169     -0.2867
     69  CB        54.1150   20.1120   27.4080 C.3   169  PHE169      0.0534
     70  CG        54.6810   18.8180   27.9220 C.ar  169  PHE169     -0.0203
     71  CD1       56.0300   18.5160   27.7480 C.ar  169  PHE169     -0.0042
     72  CD2       53.8650   17.8960   28.5710 C.ar  169  PHE169     -0.0042
     73  CE1       56.5640   17.3090   28.2130 C.ar  169  PHE169     -0.0003
     74  CE2       54.3850   16.6820   29.0430 C.ar  169  PHE169     -0.0003
     75  CZ        55.7350   16.3880   28.8630 C.ar  169  PHE169     -0.0000
     76  N         63.7680   20.3930   22.5090 N.3   186  ILE186     -0.1231
     77  CA        63.2380   21.1560   23.6320 C.3   186  ILE186      0.1692
     78  C         63.1750   20.3840   24.9460 C.2   186  ILE186      0.2592
     79  O         62.7570   19.2300   24.9730 O.2   186  ILE186     -0.2718
     80  CB        61.8230   21.6730   23.2700 C.3   186  ILE186      0.0266
     81  CG1       61.2140   22.4520   24.4330 C.3   186  ILE186      0.0019
     82  CG2       60.9190   20.5080   22.8900 C.3   186  ILE186      0.0020
     83  CD1       59.9400   23.1890   24.0320 C.3   186  ILE186      0.0001
     84  N         63.6100   21.0220   26.0320 N.am  187  ASN187     -0.1960
     85  CA        63.5630   20.3910   27.3500 C.3   187  ASN187      0.1819
     86  C         63.3610   21.4250   28.4510 C.2   187  ASN187      0.2621
     87  O         63.0910   22.5960   28.1620 O.2   187  ASN187     -0.2715
     88  CB        64.8200   19.5290   27.6040 C.3   187  ASN187      0.1195
     89  CG        66.0670   20.3400   27.9360 C.2   187  ASN187      0.2630
     90  OD1       66.0450   21.5710   28.0090 O.2   187  ASN187     -0.2716
     91  ND2       67.1730   19.6330   28.1420 N.am  187  ASN187     -0.0877
     92  N         63.4800   21.0050   29.7070 N.am  188  MET188     -0.1963
     93  CA        63.2740   21.9200   30.8260 C.3   188  MET188      0.1736
     94  C         64.4600   21.9680   31.7800 C.2   188  MET188      0.2617
     95  O         64.3550   22.5690   32.8500 O.2   188  MET188     -0.2715
     96  CB        62.0370   21.4890   31.6280 C.3   188  MET188      0.0427
     97  CG        60.7490   21.4040   30.8320 C.3   188  MET188      0.0599
     98  SD        59.4290   20.6090   31.7940 S.3   188  MET188     -0.1393
     99  CE        58.1650   20.4200   30.5390 C.3   188  MET188      0.0692
    100  N         65.5910   21.3800   31.3900 N.am  189  THR189     -0.1951
    101  CA        66.7360   21.3070   32.2910 C.3   189  THR189      0.1897
    102  C         68.1320   21.7320   31.8240 C.2   189  THR189      0.2313
    103  O         69.0300   21.8660   32.6590 O.2   189  THR189     -0.2863
    104  CB        66.8900   19.8680   32.8220 C.3   189  THR189      0.1794
    105  OG1       67.1410   18.9940   31.7140 O.3   189  THR189     -0.2208
    106  CG2       65.6230   19.4090   33.5350 C.3   189  THR189      0.0378
    107  N         62.5260   12.0510   22.7970 N.3   211  THR211     -0.1203
    108  CA        61.5270   11.1140   23.2990 C.3   211  THR211      0.1994
    109  C         60.1420   11.3630   22.7050 C.2   211  THR211      0.2617
    110  O         59.2250   10.5670   22.9000 O.2   211  THR211     -0.2717
    111  CB        61.4270   11.1930   24.8400 C.3   211  THR211      0.1784
    112  OG1       61.1330   12.5390   25.2350 O.3   211  THR211     -0.2211
    113  CG2       62.7370   10.7580   25.4810 C.3   211  THR211      0.0376
    114  N         60.0030   12.4550   21.9620 N.am  212  ASP212     -0.1973
    115  CA        58.7220   12.8140   21.3670 C.3   212  ASP212      0.1709
    116  C         58.9320   13.9040   20.3290 C.2   212  ASP212      0.2293
    117  O         60.0610   14.3680   20.1160 O.2   212  ASP212     -0.2864
    118  CB        57.7920   13.3370   22.4600 C.3   212  ASP212      0.1436
    119  CG        58.4020   14.5050   23.2190 C.2   212  ASP212      0.3671
    120  OD1       58.2360   15.6630   22.7790 O.co2 212  ASP212     -0.2456
    121  OD2       59.0720   14.2620   24.2460 O.co2 212  ASP212     -0.2456
    122  N         57.0780   16.7270   20.5490 N.3   214  ASP214     -0.1239
    123  CA        56.3910   17.8490   21.1890 C.3   214  ASP214      0.1674
    124  C         54.9640   17.9050   20.6310 C.2   214  ASP214      0.2266
    125  O         54.2480   16.9050   20.6920 O.2   214  ASP214     -0.2867
    126  CB        57.1400   19.1660   20.9280 C.3   214  ASP214      0.1410
    127  CG        56.7440   20.2670   21.9000 C.2   214  ASP214      0.3668
    128  OD1       56.6570   19.9910   23.1190 O.co2 214  ASP214     -0.2456
    129  OD2       56.5320   21.4150   21.4510 O.co2 214  ASP214     -0.2456
    130  N         52.8330   15.2360   22.6190 N.3   220  VAL220     -0.1245
    131  CA        53.6020   14.7550   23.7580 C.3   220  VAL220      0.1561
    132  C         52.7790   14.6130   25.0360 C.2   220  VAL220      0.2260
    133  O         51.8140   15.3500   25.2600 O.2   220  VAL220     -0.2867
    134  CB        54.7960   15.6980   24.0560 C.3   220  VAL220      0.0252
    135  CG1       54.2850   17.0870   24.4320 C.3   220  VAL220      0.0019
    136  CG2       55.6520   15.1230   25.1740 C.3   220  VAL220      0.0019
    137  N         53.4360   12.6720   29.3010 N.3   222  VAL222     -0.1245
    138  CA        54.4040   12.0160   30.1760 C.3   222  VAL222      0.1561
    139  C         54.5380   10.5260   29.8520 C.2   222  VAL222      0.2260
    140  O         55.6480    9.9970   29.8030 O.2   222  VAL222     -0.2867
    141  CB        54.0150   12.1870   31.6670 C.3   222  VAL222      0.0252
    142  CG1       54.8510   11.2670   32.5420 C.3   222  VAL222      0.0019
    143  CG2       54.2360   13.6310   32.0900 C.3   222  VAL222      0.0019
    144  N         56.6260    9.9320   26.7840 N.3   225  VAL225     -0.1231
    145  CA        58.0370   10.1850   27.0570 C.3   225  VAL225      0.1692
    146  C         58.6900    9.0290   27.8090 C.2   225  VAL225      0.2591
    147  O         59.7720    8.5750   27.4410 O.2   225  VAL225     -0.2718
    148  CB        58.2300   11.4760   27.8790 C.3   225  VAL225      0.0266
    149  CG1       59.6930   11.6270   28.2750 C.3   225  VAL225      0.0020
    150  CG2       57.7670   12.6800   27.0640 C.3   225  VAL225      0.0020
    151  N         58.0360    8.5580   28.8640 N.am  226  LEU226     -0.1980
    152  CA        58.5810    7.4580   29.6510 C.3   226  LEU226      0.1596
    153  C         58.7020    6.1720   28.8300 C.2   226  LEU226      0.2287
    154  O         59.6440    5.4050   29.0090 O.2   226  LEU226     -0.2864
    155  CB        57.7100    7.2140   30.8910 C.3   226  LEU226      0.0297
    156  CG        57.5870    8.3980   31.8590 C.3   226  LEU226      0.0022
    157  CD1       56.7690    7.9840   33.0820 C.3   226  LEU226      0.0001
    158  CD2       58.9730    8.8690   32.2820 C.3   226  LEU226      0.0001
@<TRIPOS>BOND
     1   117   116    2
     2   116   115    1
     3   122   123    1
     4   124   125    2
     5   124   123    1
     6   126   123    1
     7   126   127    1
     8    55    56    2
     9    55    54    1
    10   115   114    1
    11   115   118    1
    12   129   127   ar
    13   127   128   ar
    14   114   109   am
    15    54    53    1
    16   118   119    1
    17    76    77    1
    18   130   131    1
    19   109   110    2
    20   109   108    1
    21   120   119   ar
    22   107   108    1
    23    82    80    1
    24   119   121   ar
    25    52    51    1
    26    80    77    1
    27    80    81    1
    28   108   111    1
    29    50    49    2
    30    53    49   am
    31    77    78    1
    32   131   134    1
    33   131   132    1
    34    49    48    1
    35    83    81    1
    36   134   135    1
    37   134   136    1
    38    51    48    1
    39   111   112    1
    40   111   113    1
    41    78    79    2
    42    78    84   am
    43    48    47    1
    44   132   133    2
    45    47    44   am
    46    84    85    1
    47    63    61    1
    48    38    37    2
    49   144   145    1
    50    44    43    1
    51    44    45    2
    52   145   146    1
    53   145   148    1
    54   150   148    1
    55    85    88    1
    56    85    86    1
    57    67    68    2
    58    67    66    1
    59    69    70    1
    60    69    66    1
    61   147   146    2
    62    43    46    1
    63    43    42    1
    64    41    39    1
    65    88    89    1
    66    71    70   ar
    67    71    73   ar
    68   146   151   am
    69   148   149    1
    70    64    62    1
    71    70    72   ar
    72    89    90    2
    73    89    91   am
    74    37    42   am
    75    37    36    1
    76    66    65    1
    77    87    86    2
    78    73    75   ar
    79    61    62    1
    80    61    58    1
    81    57    58    1
    82    86    92   am
    83    72    74   ar
    84   153   154    2
    85   153   152    1
    86    75    74   ar
    87   151   152    1
    88    35    36    1
    89    39    40    1
    90    39    36    1
    91    58    59    1
    92   137   138    1
    93   152   155    1
    94    92    93    1
    95   140   139    2
    96   139   138    1
    97   138   141    1
    98    59    60    2
    99    99    98    1
   100    93    96    1
   101    93    94    1
   102    97    96    1
   103    97    98    1
   104   155   156    1
   105   100    94   am
   106   100   101    1
   107     4     3    2
   108   141   143    1
   109   141   142    1
   110   105   104    1
   111    94    95    2
   112   102   101    1
   113   102   103    2
   114   156   158    1
   115   156   157    1
   116   101   104    1
   117     5     7    1
   118     5     6    1
   119     5     2    1
   120     3     2    1
   121   104   106    1
   122     1     2    1
   123    33    32    1
   124    33    34    1
   125    32    29    1
   126    17    16   ar
   127    17    15   ar
   128    26    27   ar
   129    26    24   ar
   130    34    28    1
   131    16    14   ar
   132    15    13   ar
   133    29    28    1
   134    29    30    1
   135    27    25   ar
   136    24    23   ar
   137    30    31    2
   138    14    13   ar
   139    13    12    1
   140    25    23   ar
   141    23    22    1
   142    12     9    1
   143     8     9    1
   144    22    19    1
   145     9    10    1
   146    19    20    1
   147    19    18    1
   148    21    20    2
   149    10    11    2
