@<TRIPOS>MOLECULE
tmp/1k2iA00.pdb
 135 134 0 0 0
SMALL
GASTEIGER

@<TRIPOS>ATOM
      1  N         23.5760   -3.5770   30.6130 N.3    36  PHE36      -0.1227
      2  CA        24.7390   -3.2760   31.4430 C.3    36  PHE36       0.1736
      3  C         24.9570   -1.7920   31.7380 C.2    36  PHE36       0.2595
      4  O         25.7410   -1.4380   32.6180 O.2    36  PHE36      -0.2718
      5  CB        26.0060   -3.8940   30.8250 C.3    36  PHE36       0.0547
      6  CG        26.4210   -3.2900   29.5030 C.ar   36  PHE36      -0.0202
      7  CD1       27.2740   -2.1910   29.4600 C.ar   36  PHE36      -0.0042
      8  CD2       25.9890   -3.8480   28.3000 C.ar   36  PHE36      -0.0042
      9  CE1       27.6970   -1.6560   28.2380 C.ar   36  PHE36      -0.0003
     10  CE2       26.4050   -3.3210   27.0700 C.ar   36  PHE36      -0.0003
     11  CZ        27.2610   -2.2240   27.0400 C.ar   36  PHE36      -0.0000
     12  N         24.2570   -0.9230   31.0160 N.am   37  CYS37      -0.1970
     13  CA        24.3910    0.5130   31.2320 C.3    37  CYS37       0.1712
     14  C         23.2190    1.2900   30.6570 C.2    37  CYS37       0.2296
     15  O         22.4890    0.7920   29.7980 O.2    37  CYS37      -0.2864
     16  CB        25.6900    1.0330   30.6050 C.3    37  CYS37       0.0983
     17  SG        27.1300    1.0460   31.7300 S.3    37  CYS37      -0.0798
     18  N         33.1640    4.7860   31.3510 N.3    52  HIS52      -0.1241
     19  CA        33.5130    3.5290   32.0090 C.3    52  HIS52       0.1621
     20  C         32.5990    2.3590   31.6530 C.2    52  HIS52       0.2264
     21  O         32.8820    1.2210   32.0270 O.2    52  HIS52      -0.2867
     22  CB        33.5810    3.6960   33.5410 C.3    52  HIS52       0.0745
     23  CG        32.2510    3.6430   34.2300 C.ar   52  HIS52       0.0817
     24  ND1       31.5060    4.7710   34.5030 N.ar   52  HIS52      -0.2268
     25  CD2       31.5340    2.5960   34.7050 C.ar   52  HIS52       0.1154
     26  CE1       30.3890    4.4210   35.1160 C.ar   52  HIS52       0.1986
     27  NE2       30.3820    3.1060   35.2510 N.ar   52  HIS52      -0.2212
     28  N         19.5710    5.8260   46.0770 N.3   180  SER180     -0.1202
     29  CA        20.9090    5.7600   45.5090 C.3   180  SER180      0.2020
     30  C         20.9300    5.0930   44.1470 C.2   180  SER180      0.2619
     31  O         20.1830    4.1480   43.9040 O.2   180  SER180     -0.2717
     32  CB        21.8370    4.9830   46.4420 C.3   180  SER180      0.2103
     33  OG        23.1050    4.7760   45.8410 O.3   180  SER180     -0.2182
     34  N         21.7720    5.6070   43.2540 N.am  181  SER181     -0.1937
     35  CA        21.9320    4.9850   41.9480 C.3   181  SER181      0.2055
     36  C         22.7530    3.7480   42.3120 C.2   181  SER181      0.2643
     37  O         23.4000    3.7290   43.3590 O.2   181  SER181     -0.2714
     38  CB        22.7180    5.8970   41.0030 C.3   181  SER181      0.2130
     39  OG        21.9090    6.9860   40.5800 O.3   181  SER181     -0.2179
     40  N         22.7330    2.7210   41.4740 N.am  182  CYS182     -0.1953
     41  CA        23.4710    1.5020   41.7980 C.3   182  CYS182      0.1843
     42  C         23.9760    0.8320   40.5200 C.2   182  CYS182      0.2625
     43  O         23.7390    1.3350   39.4230 O.2   182  CYS182     -0.2714
     44  CB        22.5450    0.5660   42.5850 C.3   182  CYS182      0.0997
     45  SG        23.3420   -0.7460   43.5650 S.3   182  CYS182     -0.0797
     46  N         24.6790   -0.2910   40.6530 N.am  183  MET183     -0.1963
     47  CA        25.2030   -0.9790   39.4720 C.3   183  MET183      0.1736
     48  C         24.1380   -1.1920   38.4040 C.2   183  MET183      0.2617
     49  O         23.0510   -1.6950   38.6890 O.2   183  MET183     -0.2715
     50  CB        25.8170   -2.3320   39.8440 C.3   183  MET183      0.0427
     51  CG        27.1330   -2.2320   40.5950 C.3   183  MET183      0.0599
     52  SD        26.8870   -1.7820   42.3060 S.3   183  MET183     -0.1393
     53  CE        26.3610   -3.3380   42.9630 C.3   183  MET183      0.0692
     54  N         24.4660   -0.8170   37.1700 N.am  184  GLY184     -0.1955
     55  CA        23.5220   -0.9660   36.0750 C.3   184  GLY184      0.1869
     56  C         22.8680    0.3560   35.7110 C.2   184  GLY184      0.2309
     57  O         22.2520    0.4850   34.6530 O.2   184  GLY184     -0.2863
     58  N         24.7200    3.1320   35.6930 N.3   186  SER186     -0.1217
     59  CA        25.8060    3.8770   35.0600 C.3   186  SER186      0.1889
     60  C         25.5060    4.2850   33.6260 C.2   186  SER186      0.2288
     61  O         24.9230    3.5180   32.8680 O.2   186  SER186     -0.2866
     62  CB        27.1040    3.0530   35.1220 C.3   186  SER186      0.2089
     63  OG        27.4440    2.9380   36.5330 O.3   186  SER186     -0.2183
     64  N         25.2680    9.1890   35.4490 N.3   204  VAL204     -0.1231
     65  CA        25.5830    8.2690   36.5380 C.3   204  VAL204      0.1692
     66  C         26.9960    7.7410   36.3300 C.2   204  VAL204      0.2593
     67  O         27.2890    7.1300   35.3010 O.2   204  VAL204     -0.2718
     68  CB        24.5910    7.0950   36.5840 C.3   204  VAL204      0.0266
     69  CG1       24.8910    6.2110   37.7860 C.3   204  VAL204      0.0020
     70  CG2       23.1630    7.6350   36.6600 C.3   204  VAL204      0.0020
     71  N         27.8620    7.9670   37.3140 N.am  205  SER205     -0.1938
     72  CA        29.2590    7.5620   37.1960 C.3   205  SER205      0.2055
     73  C         29.7270    6.5570   38.2440 C.2   205  SER205      0.2643
     74  O         30.0290    5.4090   37.9130 O.2   205  SER205     -0.2714
     75  CB        30.1470    8.8140   37.2230 C.3   205  SER205      0.2130
     76  OG        31.5020    8.4990   36.9560 O.3   205  SER205     -0.2179
     77  N         29.8010    6.9730   39.5040 N.am  206  TRP206     -0.1959
     78  CA        30.2400    6.0500   40.5430 C.3   206  TRP206      0.1771
     79  C         29.7190    6.4180   41.9210 C.2   206  TRP206      0.2620
     80  O         29.0210    7.4160   42.0860 O.2   206  TRP206     -0.2715
     81  CB        31.7750    5.9640   40.5770 C.3   206  TRP206      0.0590
     82  CG        32.4810    7.2550   40.8960 C.ar  206  TRP206      0.0006
     83  CD1       32.7990    8.2580   40.0230 C.ar  206  TRP206      0.0946
     84  CD2       32.9670    7.6700   42.1780 C.ar  206  TRP206      0.0152
     85  NE1       33.4570    9.2710   40.6820 N.ar  206  TRP206     -0.2442
     86  CE2       33.5730    8.9350   42.0060 C.ar  206  TRP206      0.0810
     87  CE3       32.9470    7.0960   43.4570 C.ar  206  TRP206      0.0012
     88  CZ2       34.1560    9.6370   43.0680 C.ar  206  TRP206      0.0191
     89  CZ3       33.5270    7.7950   44.5140 C.ar  206  TRP206      0.0001
     90  CH2       34.1220    9.0530   44.3100 C.ar  206  TRP206      0.0015
     91  N         30.0580    5.5970   42.9090 N.am  207  GLY207     -0.1940
     92  CA        29.6180    5.8580   44.2650 C.3   207  GLY207      0.2014
     93  C         29.9310    4.7070   45.2020 C.2   207  GLY207      0.2640
     94  O         30.8290    3.9060   44.9430 O.2   207  GLY207     -0.2714
     95  N         29.1760    4.6280   46.2920 N.am  208  SER208     -0.1935
     96  CA        29.3450    3.5840   47.2960 C.3   208  SER208      0.2055
     97  C         29.3070    2.1770   46.7040 C.2   208  SER208      0.2643
     98  O         28.4120    1.8440   45.9300 O.2   208  SER208     -0.2714
     99  CB        28.2510    3.7150   48.3590 C.3   208  SER208      0.2130
    100  OG        28.2030    2.5660   49.1850 O.3   208  SER208     -0.2179
    101  N         30.2770    1.3500   47.0860 N.am  209  SER209     -0.1949
    102  CA        30.3500   -0.0220   46.5990 C.3   209  SER209      0.1924
    103  C         29.1290   -0.8430   47.0130 C.2   209  SER209      0.2314
    104  O         28.8520   -1.8920   46.4310 O.2   209  SER209     -0.2863
    105  CB        31.6210   -0.6980   47.1190 C.3   209  SER209      0.2116
    106  OG        31.6410   -0.7220   48.5360 O.3   209  SER209     -0.2180
    107  N         26.0790    0.7620   47.3930 N.3   211  CYS211     -0.1235
    108  CA        24.9410    1.5920   47.0140 C.3   211  CYS211      0.1677
    109  C         24.2070    2.1290   48.2390 C.2   211  CYS211      0.2270
    110  O         22.9790    2.1710   48.2730 O.2   211  CYS211     -0.2867
    111  CB        23.9870    0.7830   46.1310 C.3   211  CYS211      0.0956
    112  SG        24.8020    0.2080   44.6070 S.3   211  CYS211     -0.0801
    113  N         25.8660    9.9290   45.5800 N.3   217  GLY217     -0.1210
    114  CA        26.3190    9.2890   44.3620 C.3   217  GLY217      0.1956
    115  C         27.1220   10.3280   43.6080 C.2   217  GLY217      0.2612
    116  O         26.9380   11.5280   43.8270 O.2   217  GLY217     -0.2717
    117  N         28.0190    9.8880   42.7320 N.am  218  VAL218     -0.1965
    118  CA        28.8380   10.8200   41.9710 C.3   218  VAL218      0.1727
    119  C         28.4780   10.7060   40.4920 C.2   218  VAL218      0.2616
    120  O         28.4180    9.6100   39.9370 O.2   218  VAL218     -0.2715
    121  CB        30.3430   10.5330   42.1800 C.3   218  VAL218      0.0290
    122  CG1       31.1820   11.6450   41.5500 C.3   218  VAL218      0.0023
    123  CG2       30.6450   10.4270   43.6770 C.3   218  VAL218      0.0023
    124  N         28.2320   11.8530   39.8710 N.am  219  TYR219     -0.1974
    125  CA        27.8410   11.9150   38.4710 C.3   219  TYR219      0.1639
    126  C         28.8070   12.7890   37.6810 C.2   219  TYR219      0.2290
    127  O         29.4310   13.6930   38.2350 O.2   219  TYR219     -0.2864
    128  CB        26.4250   12.5000   38.3630 C.3   219  TYR219      0.0560
    129  CG        25.3850   11.7630   39.1840 C.ar  219  TYR219     -0.0198
    130  CD1       25.4040   11.8120   40.5780 C.ar  219  TYR219     -0.0009
    131  CD2       24.4150   10.9750   38.5670 C.ar  219  TYR219     -0.0009
    132  CE1       24.4900   11.0890   41.3400 C.ar  219  TYR219      0.0417
    133  CE2       23.4940   10.2450   39.3190 C.ar  219  TYR219      0.0417
    134  CZ        23.5420   10.3050   40.7060 C.ar  219  TYR219      0.1957
    135  OH        22.6720    9.5550   41.4570 O.3   219  TYR219     -0.2866
@<TRIPOS>BOND
     1    11    10   ar
     2    11     9   ar
     3    10     8   ar
     4     9     7   ar
     5     8     6   ar
     6     7     6   ar
     7     6     5    1
     8    15    14    2
     9    16    13    1
    10    16    17    1
    11     1     2    1
    12    14    13    1
    13     5     2    1
    14    12    13    1
    15    12     3   am
    16    18    19    1
    17     2     3    1
    18    20    19    1
    19    20    21    2
    20     3     4    2
    21    19    22    1
    22    61    60    2
    23    22    23    1
    24    60    59    1
    25    23    24   ar
    26    23    25   ar
    27    24    26   ar
    28    57    56    2
    29    25    27   ar
    30    59    62    1
    31    59    58    1
    32    26    27   ar
    33    62    63    1
    34    67    66    2
    35    64    65    1
    36    56    55    1
    37    55    54    1
    38    66    65    1
    39    66    71   am
    40    65    68    1
    41    68    70    1
    42    68    69    1
    43    76    75    1
    44    54    48   am
    45    72    75    1
    46    72    71    1
    47    72    73    1
    48   126   127    2
    49   126   125    1
    50    74    73    2
    51    73    77   am
    52   128   125    1
    53   128   129    1
    54    48    49    2
    55    48    47    1
    56   125   124    1
    57   131   129   ar
    58   131   133   ar
    59   129   130   ar
    60   133   134   ar
    61    43    42    2
    62    47    50    1
    63    47    46    1
    64    77    78    1
    65    50    51    1
    66   124   119   am
    67   120   119    2
    68    83    85   ar
    69    83    82   ar
    70   119   118    1
    71    42    46   am
    72    42    41    1
    73    78    81    1
    74    78    79    1
    75    81    82    1
    76   130   132   ar
    77    39    38    1
    78    51    52    1
    79    85    86   ar
    80   134   132   ar
    81   134   135    1
    82    82    84   ar
    83    38    35    1
    84    40    41    1
    85    40    36   am
    86   122   121    1
    87    41    44    1
    88    79    80    2
    89    79    91   am
    90    35    36    1
    91    35    34    1
    92   118   121    1
    93   118   117    1
    94    86    84   ar
    95    86    88   ar
    96    84    87   ar
    97   121   123    1
    98    52    53    1
    99    36    37    2
   100    44    45    1
   101   117   115   am
   102    91    92    1
   103    88    90   ar
   104    34    30   am
   105    87    89   ar
   106    45   112    1
   107   115   116    2
   108   115   114    1
   109    31    30    2
   110    30    29    1
   111    92    93    1
   112    90    89   ar
   113   114   113    1
   114   112   111    1
   115    94    93    2
   116    93    95   am
   117    29    28    1
   118    29    32    1
   119    33    32    1
   120    98    97    2
   121   111   108    1
   122    95    96    1
   123   104   103    2
   124   102   103    1
   125   102   101    1
   126   102   105    1
   127    97   101   am
   128    97    96    1
   129   108   107    1
   130   108   109    1
   131   105   106    1
   132    96    99    1
   133   109   110    2
   134    99   100    1
