@<TRIPOS>MOLECULE
tmp/1k2oB01.pdb
 185 176 0 0 0
SMALL
GASTEIGER

@<TRIPOS>ATOM
      1  N        -24.1020    6.9800  -28.3430 N.3    78  PRO78      -0.2102
      2  CA       -23.5980    8.3020  -28.7210 C.3    78  PRO78       0.1504
      3  C        -24.1550    8.8230  -30.0430 C.2    78  PRO78       0.2575
      4  O        -23.9330    9.9800  -30.3970 O.2    78  PRO78      -0.2718
      5  CB       -22.0890    8.0760  -28.7900 C.3    78  PRO78       0.0282
      6  CG       -21.9940    6.6720  -29.2780 C.3    78  PRO78       0.0208
      7  CD       -23.0360    5.9660  -28.4400 C.3    78  PRO78       0.0893
      8  N        -24.8780    7.9690  -30.7640 N.am   79  PHE79      -0.1977
      9  CA       -25.4700    8.3490  -32.0440 C.3    79  PHE79       0.1639
     10  C        -26.7000    9.2200  -31.8410 C.2    79  PHE79       0.2290
     11  O        -27.6200    8.8480  -31.1110 O.2    79  PHE79      -0.2864
     12  CB       -25.8560    7.1080  -32.8590 C.3    79  PHE79       0.0560
     13  CG       -24.6820    6.3570  -33.4190 C.ar   79  PHE79      -0.0200
     14  CD1      -24.0070    5.4200  -32.6500 C.ar   79  PHE79      -0.0042
     15  CD2      -24.2540    6.5860  -34.7230 C.ar   79  PHE79      -0.0042
     16  CE1      -22.9140    4.7210  -33.1650 C.ar   79  PHE79      -0.0003
     17  CE2      -23.1670    5.8960  -35.2480 C.ar   79  PHE79      -0.0003
     18  CZ       -22.4960    4.9600  -34.4690 C.ar   79  PHE79      -0.0000
     19  N        -31.5700    6.3690  -34.1090 N.3    83  GLU83      -0.1231
     20  CA       -31.7390    5.6150  -35.3510 C.3    83  GLU83       0.1699
     21  C        -30.5210    5.7190  -36.2690 C.2    83  GLU83       0.2592
     22  O        -30.3610    4.9190  -37.1910 O.2    83  GLU83      -0.2718
     23  CB       -32.9900    6.0900  -36.1070 C.3    83  GLU83       0.0402
     24  CG       -34.3200    5.9240  -35.3580 C.3    83  GLU83       0.1161
     25  CD       -34.5190    6.9330  -34.2310 C.2    83  GLU83       0.3649
     26  OE1      -33.9470    8.0440  -34.2960 O.co2  83  GLU83      -0.2457
     27  OE2      -35.2670    6.6160  -33.2790 O.co2  83  GLU83      -0.2457
     28  N        -29.6730    6.7160  -36.0240 N.am   84  ALA84      -0.1966
     29  CA       -28.4690    6.9110  -36.8250 C.3    84  ALA84       0.1728
     30  C        -27.4740    5.7730  -36.6050 C.2    84  ALA84       0.2617
     31  O        -26.6330    5.5070  -37.4650 O.2    84  ALA84      -0.2715
     32  CB       -27.8220    8.2400  -36.4880 C.3    84  ALA84       0.0334
     33  N        -27.5730    5.1140  -35.4530 N.am   85  GLY85      -0.1940
     34  CA       -26.6780    4.0140  -35.1400 C.3    85  GLY85       0.2014
     35  C        -27.2620    2.6350  -35.3730 C.2    85  GLY85       0.2638
     36  O        -26.5400    1.6440  -35.3200 O.2    85  GLY85      -0.2714
     37  N        -28.5660    2.5690  -35.6330 N.am   86  GLU86      -0.1977
     38  CA       -29.2540    1.3040  -35.8830 C.3    86  GLU86       0.1602
     39  C        -28.8840    0.1880  -34.9040 C.2    86  GLU86       0.2287
     40  O        -29.0870    0.3160  -33.6950 O.2    86  GLU86      -0.2864
     41  CB       -28.9960    0.8260  -37.3160 C.3    86  GLU86       0.0415
     42  CG       -29.6400    1.6720  -38.3970 C.3    86  GLU86       0.1163
     43  CD       -29.7380    0.9420  -39.7260 C.2    86  GLU86       0.3649
     44  OE1      -29.9620    1.6140  -40.7540 O.co2  86  GLU86      -0.2457
     45  OE2      -29.6090   -0.3030  -39.7400 O.co2  86  GLU86      -0.2457
     46  N        -25.8470   -0.8670  -34.2630 N.3    88  TYR88      -0.1241
     47  CA       -24.4310   -0.7310  -33.9060 C.3    88  TYR88       0.1605
     48  C        -24.2470   -1.3910  -32.5310 C.2    88  TYR88       0.2264
     49  O        -25.0350   -1.1510  -31.6190 O.2    88  TYR88      -0.2867
     50  CB       -24.0650    0.7550  -33.8220 C.3    88  TYR88       0.0534
     51  CG       -22.6440    1.0600  -33.3900 C.ar   88  TYR88      -0.0201
     52  CD1      -22.2840    1.0640  -32.0380 C.ar   88  TYR88      -0.0009
     53  CD2      -21.6740    1.4010  -34.3280 C.ar   88  TYR88      -0.0009
     54  CE1      -20.9910    1.4050  -31.6370 C.ar   88  TYR88       0.0417
     55  CE2      -20.3810    1.7420  -33.9380 C.ar   88  TYR88       0.0417
     56  CZ       -20.0450    1.7440  -32.5920 C.ar   88  TYR88       0.1957
     57  OH       -18.7640    2.0790  -32.2200 O.3    88  TYR88      -0.2866
     58  N        -20.6430   -2.2250  -31.3360 N.3    90  PHE90      -0.1241
     59  CA       -19.2130   -2.3030  -31.0340 C.3    90  PHE90       0.1605
     60  C        -18.8940   -2.0050  -29.5710 C.2    90  PHE90       0.2264
     61  O        -19.6210   -1.2710  -28.8920 O.2    90  PHE90      -0.2867
     62  CB       -18.4020   -1.3550  -31.9290 C.3    90  PHE90       0.0534
     63  CG       -18.3650   -1.7580  -33.3830 C.ar   90  PHE90      -0.0203
     64  CD1      -18.4240   -3.0980  -33.7540 C.ar   90  PHE90      -0.0042
     65  CD2      -18.2550   -0.7910  -34.3790 C.ar   90  PHE90      -0.0042
     66  CE1      -18.3710   -3.4730  -35.1000 C.ar   90  PHE90      -0.0003
     67  CE2      -18.2010   -1.1570  -35.7300 C.ar   90  PHE90      -0.0003
     68  CZ       -18.2600   -2.5010  -36.0870 C.ar   90  PHE90      -0.0000
     69  N        -17.8180    1.3000  -27.0040 N.3    93  THR93      -0.1218
     70  CA       -18.5920    2.5200  -27.2710 C.3    93  THR93       0.1862
     71  C        -19.7640    2.8010  -26.3280 C.2    93  THR93       0.2287
     72  O        -19.9160    3.9260  -25.8480 O.2    93  THR93      -0.2866
     73  CB       -19.1400    2.5390  -28.7320 C.3    93  THR93       0.1770
     74  OG1      -18.0500    2.5340  -29.6570 O.3    93  THR93      -0.2211
     75  CG2      -19.9830    3.7890  -28.9860 C.3    93  THR93       0.0375
     76  N        -20.9490   -0.8020  -44.5120 N.3   176  MET176     -0.1230
     77  CA       -21.3780   -0.4390  -43.1660 C.3   176  MET176      0.1702
     78  C        -21.4790    1.0640  -42.9450 C.2   176  MET176      0.2593
     79  O        -22.4980    1.5580  -42.4630 O.2   176  MET176     -0.2718
     80  CB       -20.4300   -1.0220  -42.1130 C.3   176  MET176      0.0401
     81  CG       -20.9100   -2.3030  -41.4650 C.3   176  MET176      0.0596
     82  SD       -20.2360   -2.4930  -39.7980 S.3   176  MET176     -0.1393
     83  CE       -18.8920   -3.4460  -40.1360 C.3   176  MET176      0.0692
     84  N        -20.4300    1.7920  -43.3190 N.am  177  THR177     -0.1953
     85  CA       -20.3900    3.2350  -43.1080 C.3   177  THR177      0.1897
     86  C        -20.8040    4.1270  -44.2740 C.2   177  THR177      0.2313
     87  O        -21.0360    5.3240  -44.0970 O.2   177  THR177     -0.2863
     88  CB       -19.0180    3.6800  -42.5700 C.3   177  THR177      0.1794
     89  OG1      -17.9950    3.3340  -43.5100 O.3   177  THR177     -0.2208
     90  CG2      -18.7280    3.0010  -41.2430 C.3   177  THR177      0.0378
     91  N        -23.4680    3.1970  -46.8010 N.3   179  PRO179     -0.2102
     92  CA       -24.5610    2.3830  -47.3420 C.3   179  PRO179      0.1504
     93  C        -25.1900    2.9370  -48.6160 C.2   179  PRO179      0.2576
     94  O        -25.0690    4.1230  -48.9160 O.2   179  PRO179     -0.2718
     95  CB       -25.5620    2.3630  -46.1910 C.3   179  PRO179      0.0282
     96  CG       -25.3950    3.7290  -45.6020 C.3   179  PRO179      0.0208
     97  CD       -23.8930    3.8690  -45.5560 C.3   179  PRO179      0.0893
     98  N        -25.8860    2.0620  -49.3390 N.am  180  ASP180     -0.1960
     99  CA       -26.5510    2.4270  -50.5850 C.3   180  ASP180      0.1840
    100  C        -27.7050    1.4760  -50.9230 C.2   180  ASP180      0.2622
    101  O        -28.2120    1.4850  -52.0410 O.2   180  ASP180     -0.2715
    102  CB       -25.5360    2.4720  -51.7420 C.3   180  ASP180      0.1450
    103  CG       -24.9090    1.1130  -52.0410 C.2   180  ASP180      0.3671
    104  OD1      -24.2280    0.9940  -53.0820 O.co2 180  ASP180     -0.2456
    105  OD2      -25.0900    0.1660  -51.2490 O.co2 180  ASP180     -0.2456
    106  N        -28.0980    0.6420  -49.9610 N.am  181  GLY181     -0.1954
    107  CA       -29.1970   -0.2850  -50.1760 C.3   181  GLY181      0.1869
    108  C        -28.8240   -1.6970  -50.5960 C.2   181  GLY181      0.2309
    109  O        -29.7020   -2.5570  -50.7120 O.2   181  GLY181     -0.2863
    110  N        -27.3830   -2.5250  -42.4970 N.3   185  PHE185     -0.1241
    111  CA       -26.2650   -2.4060  -41.5750 C.3   185  PHE185      0.1605
    112  C        -26.0770   -3.7270  -40.8300 C.2   185  PHE185      0.2264
    113  O        -24.9520   -4.1990  -40.6730 O.2   185  PHE185     -0.2867
    114  CB       -26.4990   -1.2700  -40.5770 C.3   185  PHE185      0.0534
    115  CG       -25.3610   -1.0710  -39.6170 C.ar  185  PHE185     -0.0203
    116  CD1      -24.2690   -0.2890  -39.9730 C.ar  185  PHE185     -0.0042
    117  CD2      -25.3660   -1.6920  -38.3710 C.ar  185  PHE185     -0.0042
    118  CE1      -23.1910   -0.1280  -39.1090 C.ar  185  PHE185     -0.0003
    119  CE2      -24.2910   -1.5380  -37.4960 C.ar  185  PHE185     -0.0003
    120  CZ       -23.2020   -0.7540  -37.8660 C.ar  185  PHE185     -0.0000
    121  N        -14.5610   -2.5860  -33.9920 N.3   236  LEU236     -0.1245
    122  CA       -14.3060   -1.1670  -33.8000 C.3   236  LEU236      0.1561
    123  C        -12.8330   -0.8250  -34.0200 C.2   236  LEU236      0.2260
    124  O        -12.5100    0.2450  -34.5380 O.2   236  LEU236     -0.2867
    125  CB       -14.7660   -0.7340  -32.4080 C.3   236  LEU236      0.0270
    126  CG       -14.5990    0.7430  -32.0470 C.3   236  LEU236      0.0019
    127  CD1      -15.2600    1.6340  -33.1030 C.3   236  LEU236      0.0001
    128  CD2      -15.2060    0.9830  -30.6730 C.3   236  LEU236      0.0001
    129  N        -13.0280   -0.5360  -37.8210 N.3   239  VAL239     -0.1231
    130  CA       -13.8160    0.5580  -38.3970 C.3   239  VAL239      0.1692
    131  C        -13.4530    1.9290  -37.8570 C.2   239  VAL239      0.2592
    132  O        -13.4520    2.9160  -38.5980 O.2   239  VAL239     -0.2718
    133  CB       -15.3530    0.2790  -38.2620 C.3   239  VAL239      0.0266
    134  CG1      -16.1610    1.4600  -38.7640 C.3   239  VAL239      0.0020
    135  CG2      -15.7430   -0.9620  -39.0560 C.3   239  VAL239      0.0020
    136  N        -13.0880    1.9880  -36.5780 N.am  240  GLY240     -0.1957
    137  CA       -12.7350    3.2650  -35.9760 C.3   240  GLY240      0.1869
    138  C        -11.5270    3.9620  -36.5860 C.2   240  GLY240      0.2309
    139  O        -11.4050    5.1910  -36.5190 O.2   240  GLY240     -0.2863
    140  N        -12.2960    7.9900  -40.3200 N.3   244  THR244     -0.1218
    141  CA       -11.7100    9.1260  -39.6130 C.3   244  THR244      0.1862
    142  C        -10.3660    9.5180  -40.2260 C.2   244  THR244      0.2287
    143  O        -10.1180   10.6900  -40.4970 O.2   244  THR244     -0.2866
    144  CB       -11.4810    8.8070  -38.1300 C.3   244  THR244      0.1770
    145  OG1      -10.7700    7.5630  -38.0180 O.3   244  THR244     -0.2211
    146  CG2      -12.8120    8.7070  -37.3980 C.3   244  THR244      0.0375
    147  N        -14.9380   14.9290  -35.9100 N.3   287  VAL287     -0.1245
    148  CA       -15.9110   14.0600  -35.2640 C.3   287  VAL287      0.1561
    149  C        -16.9150   14.8280  -34.4050 C.2   287  VAL287      0.2260
    150  O        -16.5780   15.8510  -33.8020 O.2   287  VAL287     -0.2867
    151  CB       -15.2200   12.9760  -34.4020 C.3   287  VAL287      0.0252
    152  CG1      -16.2610   12.0610  -33.7550 C.3   287  VAL287      0.0019
    153  CG2      -14.2670   12.1540  -35.2650 C.3   287  VAL287      0.0019
    154  N        -20.2530   13.4810  -31.9580 N.3   289  ASP289     -0.1239
    155  CA       -21.3000   12.6060  -31.4510 C.3   289  ASP289      0.1674
    156  C        -21.7460   13.1410  -30.0970 C.2   289  ASP289      0.2266
    157  O        -21.4070   14.2710  -29.7400 O.2   289  ASP289     -0.2867
    158  CB       -20.8940   11.1180  -31.4280 C.3   289  ASP289      0.1410
    159  CG       -19.7810   10.7860  -30.4400 C.2   289  ASP289      0.3668
    160  OD1      -19.3160   11.6460  -29.6630 O.co2 289  ASP289     -0.2456
    161  OD2      -19.3770    9.6020  -30.4480 O.co2 289  ASP289     -0.2456
    162  N        -16.9010   17.0780  -30.8350 N.3   314  GLN314     -0.1245
    163  CA       -15.4640   17.0520  -30.5660 C.3   314  GLN314      0.1566
    164  C        -14.7650   18.0980  -31.4400 C.2   314  GLN314      0.2260
    165  O        -13.7300   18.6550  -31.0660 O.2   314  GLN314     -0.2867
    166  CB       -14.8880   15.6600  -30.8640 C.3   314  GLN314      0.0367
    167  CG       -15.2050   14.6000  -29.8070 C.3   314  GLN314      0.0905
    168  CD       -16.5200   13.8630  -30.0280 C.2   314  GLN314      0.2608
    169  OE1      -17.3540   14.2510  -30.8550 O.2   314  GLN314     -0.2717
    170  NE2      -16.7090   12.7810  -29.2780 N.am  314  GLN314     -0.0878
    171  N        -21.5060   12.4800  -38.3970 N.3   387  ILE387     -0.1231
    172  CA       -20.8300   12.0890  -37.1630 C.3   387  ILE387      0.1692
    173  C        -19.3240   12.1770  -37.4150 C.2   387  ILE387      0.2591
    174  O        -18.5520   12.5520  -36.5330 O.2   387  ILE387     -0.2718
    175  CB       -21.2580   10.6820  -36.7280 C.3   387  ILE387      0.0266
    176  CG1      -22.7590   10.6960  -36.4200 C.3   387  ILE387      0.0019
    177  CG2      -20.4610   10.2300  -35.5140 C.3   387  ILE387      0.0020
    178  CD1      -23.3430    9.3450  -36.1440 C.3   387  ILE387      0.0001
    179  N        -18.9290   11.8290  -38.6370 N.am  388  VAL388     -0.1980
    180  CA       -17.5450   11.9290  -39.0760 C.3   388  VAL388      0.1595
    181  C        -17.6200   12.6790  -40.4070 C.2   388  VAL388      0.2287
    182  O        -18.0570   12.1260  -41.4210 O.2   388  VAL388     -0.2864
    183  CB       -16.8810   10.5480  -39.2940 C.3   388  VAL388      0.0276
    184  CG1      -15.4580   10.7330  -39.7960 C.3   388  VAL388      0.0022
    185  CG2      -16.8750    9.7470  -37.9960 C.3   388  VAL388      0.0022
@<TRIPOS>BOND
     1   104   103   ar
     2   103   102    1
     3   103   105   ar
     4   101   100    2
     5   102    99    1
     6   100    99    1
     7   100   106   am
     8   109   108    2
     9   108   107    1
    10    99    98    1
    11   107   106    1
    12    98    93   am
    13    94    93    2
    14    93    92    1
    15    92    91    1
    16    92    95    1
    17    91    97    1
    18    95    96    1
    19    96    97    1
    20    76    77    1
    21    86    87    2
    22    86    85    1
    23    89    88    1
    24    84    85    1
    25    84    78   am
    26    77    78    1
    27    77    80    1
    28    85    88    1
    29    78    79    2
    30    88    90    1
    31   110   111    1
    32    80    81    1
    33   111   112    1
    34   111   114    1
    35    81    82    1
    36   182   181    2
    37   112   113    2
    38    44    43   ar
    39   114   115    1
    40   143   142    2
    41   181   180    1
    42   140   141    1
    43   142   141    1
    44    83    82    1
    45   116   115   ar
    46   116   118   ar
    47   184   183    1
    48    45    43   ar
    49    43    42    1
    50   115   117   ar
    51   141   144    1
    52   183   180    1
    53   183   185    1
    54   118   120   ar
    55   180   179    1
    56   135   133    1
    57   134   133    1
    58   179   173   am
    59   132   131    2
    60    42    41    1
    61   130   133    1
    62   130   131    1
    63   130   129    1
    64   171   172    1
    65   117   119   ar
    66   144   145    1
    67   144   146    1
    68   120   119   ar
    69   131   136   am
    70    31    30    2
    71   173   172    1
    72   173   174    2
    73    41    38    1
    74    22    21    2
    75   172   175    1
    76    29    30    1
    77    29    32    1
    78    29    28    1
    79   175   176    1
    80   175   177    1
    81    30    33   am
    82   138   139    2
    83   138   137    1
    84   136   137    1
    85   176   178    1
    86    21    28   am
    87    21    20    1
    88    23    24    1
    89    23    20    1
    90    68    67   ar
    91    68    66   ar
    92   147   148    1
    93    38    37    1
    94    38    39    1
    95    67    65   ar
    96    37    35   am
    97    33    34    1
    98    35    36    2
    99    35    34    1
   100    24    25    1
   101    20    19    1
   102   153   151    1
   103   148   149    1
   104   148   151    1
   105    17    15   ar
   106    17    18   ar
   107    66    64   ar
   108    39    40    2
   109    15    13   ar
   110   124   123    2
   111    18    16   ar
   112   149   150    2
   113   151   152    1
   114    65    63   ar
   115    53    55   ar
   116    53    51   ar
   117    26    25   ar
   118    46    47    1
   119    25    27   ar
   120   123   122    1
   121   121   122    1
   122    55    56   ar
   123    47    50    1
   124    47    48    1
   125    50    51    1
   126   122   125    1
   127    64    63   ar
   128    13    12    1
   129    13    14   ar
   130    51    52   ar
   131    63    62    1
   132    16    14   ar
   133   127   126    1
   134    12     9    1
   135    56    57    1
   136    56    54   ar
   137    48    49    2
   138   125   126    1
   139   126   128    1
   140     9    10    1
   141     9     8    1
   142    52    54   ar
   143   154   155    1
   144    62    59    1
   145    10    11    2
   146   155   158    1
   147   155   156    1
   148   164   165    2
   149   164   163    1
   150   158   159    1
   151    58    59    1
   152    59    60    1
   153   166   163    1
   154   166   167    1
   155   169   168    2
   156   162   163    1
   157     8     3   am
   158   161   159   ar
   159   159   160   ar
   160     4     3    2
   161   156   157    2
   162     3     2    1
   163   168   167    1
   164   168   170   am
   165    74    73    1
   166    60    61    2
   167     6     5    1
   168     6     7    1
   169    75    73    1
   170     5     2    1
   171    73    70    1
   172     2     1    1
   173     7     1    1
   174    70    69    1
   175    70    71    1
   176    71    72    2
