@<TRIPOS>MOLECULE
tmp/1k2rB03.pdb
 151 151 0 0 0
SMALL
GASTEIGER

@<TRIPOS>ATOM
      1  N         20.2060    3.8570   64.6690 N.3   171  GLN171     -0.1245
      2  CA        19.2020    2.8560   65.0180 C.3   171  GLN171      0.1566
      3  C         19.5770    2.3830   66.4240 C.2   171  GLN171      0.2260
      4  O         20.7580    2.2950   66.7600 O.2   171  GLN171     -0.2867
      5  CB        19.2330    1.6760   64.0610 C.3   171  GLN171      0.0367
      6  CG        18.7240    1.9580   62.6530 C.3   171  GLN171      0.0905
      7  CD        18.6670    0.6900   61.8260 C.2   171  GLN171      0.2608
      8  OE1       18.4480   -0.3990   62.3680 O.2   171  GLN171     -0.2717
      9  NE2       18.8440    0.8140   60.5180 N.am  171  GLN171     -0.0878
     10  N         22.2700   -1.8100   66.1120 N.3   174  ARG174     -0.1245
     11  CA        23.0130   -1.8270   64.8630 C.3   174  ARG174      0.1563
     12  C         24.3840   -2.4420   65.0680 C.2   174  ARG174      0.2260
     13  O         24.9750   -2.3150   66.1430 O.2   174  ARG174     -0.2867
     14  CB        23.1900   -0.4030   64.3260 C.3   174  ARG174      0.0307
     15  CG        22.1150    0.0230   63.3710 C.3   174  ARG174      0.0489
     16  CD        22.6090    1.1310   62.4630 C.3   174  ARG174      0.2205
     17  NE        22.1640    0.9100   61.0920 N.pl3 174  ARG174     -0.0865
     18  CZ        22.4130    1.7310   60.0800 C.cat 174  ARG174      0.5346
     19  NH1       23.1090    2.8370   60.2810 N.pl3 174  ARG174      0.1354
     20  NH2       21.9540    1.4500   58.8710 N.pl3 174  ARG174      0.1354
     21  N         21.1860  -11.3290   61.8430 N.3   254  TRP254     -0.1227
     22  CA        20.8060   -9.9270   61.9150 C.3   254  TRP254      0.1737
     23  C         19.9070   -9.7470   63.1260 C.2   254  TRP254      0.2595
     24  O         19.4060  -10.7280   63.6800 O.2   254  TRP254     -0.2718
     25  CB        20.0790   -9.5250   60.6310 C.3   254  TRP254      0.0564
     26  CG        20.0760   -8.0600   60.3560 C.ar  254  TRP254      0.0003
     27  CD1       19.0250   -7.1960   60.5020 C.ar  254  TRP254      0.0946
     28  CD2       21.1700   -7.2830   59.8700 C.ar  254  TRP254      0.0152
     29  NE1       19.4000   -5.9280   60.1340 N.ar  254  TRP254     -0.2442
     30  CE2       20.7130   -5.9530   59.7410 C.ar  254  TRP254      0.0810
     31  CE3       22.4960   -7.5810   59.5260 C.ar  254  TRP254      0.0012
     32  CZ2       21.5340   -4.9200   59.2820 C.ar  254  TRP254      0.0191
     33  CZ3       23.3160   -6.5510   59.0660 C.ar  254  TRP254      0.0001
     34  CH2       22.8290   -5.2370   58.9490 C.ar  254  TRP254      0.0015
     35  N         19.7200   -8.5040   63.5540 N.am  255  TYR255     -0.1976
     36  CA        18.8610   -8.2390   64.6940 C.3   255  TYR255      0.1639
     37  C         17.3890   -8.1920   64.2270 C.2   255  TYR255      0.2290
     38  O         17.1030   -7.8620   63.0730 O.2   255  TYR255     -0.2864
     39  CB        19.2850   -6.9310   65.3660 C.3   255  TYR255      0.0560
     40  CG        19.4560   -5.7660   64.4140 C.ar  255  TYR255     -0.0198
     41  CD1       18.4490   -4.8130   64.2650 C.ar  255  TYR255     -0.0009
     42  CD2       20.6400   -5.5990   63.6870 C.ar  255  TYR255     -0.0009
     43  CE1       18.6070   -3.7190   63.4280 C.ar  255  TYR255      0.0417
     44  CE2       20.8140   -4.5100   62.8420 C.ar  255  TYR255      0.0417
     45  CZ        19.7920   -3.5780   62.7220 C.ar  255  TYR255      0.1957
     46  OH        19.9450   -2.4960   61.8710 O.3   255  TYR255     -0.2866
     47  N         13.9820   -3.2990   64.0450 N.3   258  PRO258     -0.2102
     48  CA        14.4590   -2.1240   63.3120 C.3   258  PRO258      0.1504
     49  C         13.9520   -0.9140   64.0820 C.2   258  PRO258      0.2576
     50  O         12.7420   -0.8000   64.3350 O.2   258  PRO258     -0.2718
     51  CB        13.7860   -2.2700   61.9530 C.3   258  PRO258      0.0282
     52  CG        12.4680   -2.8920   62.3080 C.3   258  PRO258      0.0208
     53  CD        12.8480   -3.9350   63.3450 C.3   258  PRO258      0.0893
     54  N         14.8500   -0.0160   64.4720 N.am  259  ALA259     -0.1966
     55  CA        14.4040    1.1500   65.2320 C.3   259  ALA259      0.1728
     56  C         15.1780    2.4370   64.9900 C.2   259  ALA259      0.2616
     57  O         16.0470    2.8020   65.7790 O.2   259  ALA259     -0.2715
     58  CB        14.4090    0.8210   66.7230 C.3   259  ALA259      0.0334
     59  N         14.8600    3.1240   63.8990 N.am  260  VAL260     -0.1977
     60  CA        15.5100    4.3840   63.5780 C.3   260  VAL260      0.1596
     61  C         15.4650    5.2850   64.8010 C.2   260  VAL260      0.2287
     62  O         14.4280    5.4140   65.4580 O.2   260  VAL260     -0.2864
     63  CB        14.8220    5.0590   62.3870 C.3   260  VAL260      0.0276
     64  CG1       15.3250    6.4710   62.2180 C.3   260  VAL260      0.0022
     65  CG2       15.0960    4.2530   61.1330 C.3   260  VAL260      0.0022
     66  N         11.8830    5.1010   67.1010 N.3   277  PHE277     -0.1227
     67  CA        10.6740    4.3400   66.8280 C.3   277  PHE277      0.1736
     68  C         11.0300    3.0130   66.1570 C.2   277  PHE277      0.2596
     69  O         12.0500    2.8920   65.4700 O.2   277  PHE277     -0.2718
     70  CB         9.7140    5.1520   65.9560 C.3   277  PHE277      0.0547
     71  CG        10.3060    5.6020   64.6470 C.ar  277  PHE277     -0.0202
     72  CD1       10.4350    4.7130   63.5810 C.ar  277  PHE277     -0.0042
     73  CD2       10.7030    6.9270   64.4700 C.ar  277  PHE277     -0.0042
     74  CE1       10.9420    5.1350   62.3550 C.ar  277  PHE277     -0.0003
     75  CE2       11.2090    7.3540   63.2540 C.ar  277  PHE277     -0.0003
     76  CZ        11.3260    6.4560   62.1910 C.ar  277  PHE277     -0.0000
     77  N         10.1840    2.0170   66.3700 N.am  278  SER278     -0.1938
     78  CA        10.4110    0.6980   65.8080 C.3   278  SER278      0.2055
     79  C          9.0960    0.0250   65.4530 C.2   278  SER278      0.2644
     80  O          8.0560    0.3290   66.0370 O.2   278  SER278     -0.2714
     81  CB        11.1480   -0.1730   66.8180 C.3   278  SER278      0.2130
     82  OG        10.3490   -0.3630   67.9720 O.3   278  SER278     -0.2179
     83  N          9.1630   -0.8810   64.4820 N.am  279  GLY279     -0.1939
     84  CA         8.0050   -1.6440   64.0520 C.3   279  GLY279      0.2014
     85  C          8.5720   -3.0190   63.7660 C.2   279  GLY279      0.2639
     86  O          9.0010   -3.7160   64.6830 O.2   279  GLY279     -0.2714
     87  N          8.5690   -3.4140   62.5000 N.am  280  TRP280     -0.1959
     88  CA         9.1650   -4.6770   62.1070 C.3   280  TRP280      0.1771
     89  C          9.7260   -4.5750   60.6830 C.2   280  TRP280      0.2619
     90  O          9.3250   -3.7200   59.8970 O.2   280  TRP280     -0.2715
     91  CB         8.1750   -5.8450   62.2700 C.3   280  TRP280      0.0590
     92  CG         6.8430   -5.6900   61.6270 C.ar  280  TRP280      0.0006
     93  CD1        6.5310   -5.9150   60.3150 C.ar  280  TRP280      0.0946
     94  CD2        5.6100   -5.3590   62.2830 C.ar  280  TRP280      0.0152
     95  NE1        5.1780   -5.7540   60.1150 N.ar  280  TRP280     -0.2442
     96  CE2        4.5900   -5.4110   61.3060 C.ar  280  TRP280      0.0810
     97  CE3        5.2680   -5.0280   63.6050 C.ar  280  TRP280      0.0012
     98  CZ2        3.2460   -5.1450   61.6060 C.ar  280  TRP280      0.0191
     99  CZ3        3.9230   -4.7630   63.9060 C.ar  280  TRP280      0.0001
    100  CH2        2.9340   -4.8260   62.9060 C.ar  280  TRP280      0.0015
    101  N         10.6810   -5.4380   60.3700 N.am  281  TYR281     -0.1974
    102  CA        11.3360   -5.4260   59.0700 C.3   281  TYR281      0.1639
    103  C         10.5670   -5.9890   57.9070 C.2   281  TYR281      0.2290
    104  O          9.7530   -6.9020   58.0630 O.2   281  TYR281     -0.2864
    105  CB        12.6290   -6.2290   59.1210 C.3   281  TYR281      0.0560
    106  CG        13.8430   -5.4910   59.5820 C.ar  281  TYR281     -0.0198
    107  CD1       14.4730   -5.8330   60.7790 C.ar  281  TYR281     -0.0009
    108  CD2       14.4430   -4.5380   58.7650 C.ar  281  TYR281     -0.0009
    109  CE1       15.6860   -5.2540   61.1430 C.ar  281  TYR281      0.0417
    110  CE2       15.6510   -3.9500   59.1140 C.ar  281  TYR281      0.0417
    111  CZ        16.2620   -4.3210   60.2990 C.ar  281  TYR281      0.1957
    112  OH        17.4830   -3.7760   60.6200 O.3   281  TYR281     -0.2866
    113  N         14.8480   -5.2110   53.2570 N.3   285  GLU285     -0.1245
    114  CA        15.7020   -4.2350   53.9090 C.3   285  GLU285      0.1567
    115  C         17.0060   -4.9100   54.2930 C.2   285  GLU285      0.2260
    116  O         18.0820   -4.3270   54.1610 O.2   285  GLU285     -0.2867
    117  CB        15.0240   -3.6770   55.1600 C.3   285  GLU285      0.0388
    118  CG        13.6500   -3.0690   54.9160 C.3   285  GLU285      0.1160
    119  CD        13.1390   -2.3280   56.1320 C.2   285  GLU285      0.3649
    120  OE1       13.7410   -1.2890   56.4950 O.co2 285  GLU285     -0.2457
    121  OE2       12.1410   -2.7910   56.7250 O.co2 285  GLU285     -0.2457
    122  N         19.3260   -4.7150   50.6180 N.3   289  ARG289     -0.1231
    123  CA        20.1720   -3.5880   50.9560 C.3   289  ARG289      0.1694
    124  C         21.2910   -3.8570   51.9730 C.2   289  ARG289      0.2592
    125  O         22.4660   -3.6300   51.6910 O.2   289  ARG289     -0.2718
    126  CB        19.2870   -2.4310   51.4480 C.3   289  ARG289      0.0321
    127  CG        18.1250   -2.0530   50.5070 C.3   289  ARG289      0.0489
    128  CD        18.6030   -1.6340   49.1100 C.3   289  ARG289      0.2205
    129  NE        19.6610   -0.6310   49.1850 N.pl3 289  ARG289     -0.0865
    130  CZ        19.4670    0.6290   49.5520 C.cat 289  ARG289      0.5346
    131  NH1       18.2460    1.0390   49.8580 N.pl3 289  ARG289      0.1354
    132  NH2       20.5010    1.4620   49.6660 N.pl3 289  ARG289      0.1354
    133  N         20.9280   -4.3290   53.1570 N.am  290  ASP290     -0.1974
    134  CA        21.9140   -4.5760   54.1910 C.3   290  ASP290      0.1709
    135  C         22.9440   -5.6530   53.8470 C.2   290  ASP290      0.2293
    136  O         24.1180   -5.5430   54.2290 O.2   290  ASP290     -0.2864
    137  CB        21.2110   -4.9090   55.5070 C.3   290  ASP290      0.1436
    138  CG        20.3530   -3.7590   56.0260 C.2   290  ASP290      0.3671
    139  OD1       20.4060   -2.6430   55.4670 O.co2 290  ASP290     -0.2456
    140  OD2       19.6230   -3.9710   57.0110 O.co2 290  ASP290     -0.2456
    141  N         27.6880   -2.2250   51.8520 N.3   296  ARG296     -0.1245
    142  CA        27.2260   -2.8080   53.1070 C.3   296  ARG296      0.1563
    143  C         27.9820   -4.1190   53.3100 C.2   296  ARG296      0.2260
    144  O         29.1940   -4.1580   53.1220 O.2   296  ARG296     -0.2867
    145  CB        25.7100   -3.0310   53.0670 C.3   296  ARG296      0.0307
    146  CG        24.8990   -1.7270   52.9440 C.3   296  ARG296      0.0489
    147  CD        25.1220   -0.7760   54.1220 C.3   296  ARG296      0.2205
    148  NE        24.7250   -1.3530   55.4130 N.pl3 296  ARG296     -0.0865
    149  CZ        23.4860   -1.3510   55.9080 C.cat 296  ARG296      0.5346
    150  NH1       22.4840   -0.7960   55.2310 N.pl3 296  ARG296      0.1354
    151  NH2       23.2490   -1.9050   57.0900 N.pl3 296  ARG296      0.1354
@<TRIPOS>BOND
     1   128   129    1
     2   128   127    1
     3   129   130    2
     4   130   132    1
     5   130   131    1
     6   127   126    1
     7   122   123    1
     8   123   126    1
     9   123   124    1
    10   125   124    2
    11   141   142    1
    12   124   133   am
    13   146   145    1
    14   146   147    1
    15   145   142    1
    16   142   143    1
    17   144   143    2
    18   133   134    1
    19   113   114    1
    20   135   134    1
    21   135   136    2
    22   114   115    1
    23   114   117    1
    24   147   148    1
    25   116   115    2
    26   134   137    1
    27   118   117    1
    28   118   119    1
    29   150   149    1
    30   148   149    2
    31   139   138   ar
    32   137   138    1
    33   149   151    1
    34   138   140   ar
    35   119   120   ar
    36   119   121   ar
    37   103   104    2
    38   103   102    1
    39   108   110   ar
    40   108   106   ar
    41    20    18    1
    42    34    33   ar
    43    34    32   ar
    44    33    31   ar
    45   102   105    1
    46   102   101    1
    47   110   111   ar
    48   105   106    1
    49    32    30   ar
    50    31    28   ar
    51   106   107   ar
    52    30    28   ar
    53    30    29   ar
    54    28    26   ar
    55    90    89    2
    56    18    19    1
    57    18    17    2
    58    95    93   ar
    59    95    96   ar
    60    29    27   ar
    61   111   112    1
    62   111   109   ar
    63    93    92   ar
    64    26    27   ar
    65    26    25    1
    66   101    89   am
    67     9     7   am
    68    25    22    1
    69    89    88    1
    70   107   109   ar
    71    17    16    1
    72    65    63    1
    73    96    98   ar
    74    96    94   ar
    75    98   100   ar
    76    92    91    1
    77    92    94   ar
    78     7     8    2
    79     7     6    1
    80    21    22    1
    81    46    45    1
    82    22    23    1
    83    51    52    1
    84    51    48    1
    85    88    91    1
    86    88    87    1
    87    76    74   ar
    88    76    75   ar
    89    64    63    1
    90    94    97   ar
    91    52    53    1
    92    74    72   ar
    93    63    60    1
    94    16    15    1
    95    87    85   am
    96     6     5    1
    97    45    44   ar
    98    45    43   ar
    99    44    42   ar
   100   100    99   ar
   101    38    37    2
   102    23    35   am
   103    23    24    2
   104    75    73   ar
   105    48    47    1
   106    48    49    1
   107    53    47    1
   108    15    14    1
   109    43    41   ar
   110    35    36    1
   111    60    59    1
   112    60    61    1
   113    72    71   ar
   114    97    99   ar
   115    42    40   ar
   116    85    84    1
   117    85    86    2
   118    59    56   am
   119    84    83    1
   120     5     2    1
   121    49    50    2
   122    49    54   am
   123    37    36    1
   124    41    40   ar
   125    14    11    1
   126    40    39    1
   127    73    71   ar
   128    54    55    1
   129    83    79   am
   130    71    70    1
   131     1     2    1
   132    36    39    1
   133    61    62    2
   134    11    12    1
   135    11    10    1
   136    56    55    1
   137    56    57    2
   138     2     3    1
   139    12    13    2
   140    55    58    1
   141    79    78    1
   142    79    80    2
   143    69    68    2
   144    78    77    1
   145    78    81    1
   146    70    67    1
   147    68    77   am
   148    68    67    1
   149     3     4    2
   150    81    82    1
   151    67    66    1
