@<TRIPOS>MOLECULE
tmp/1k2tB03.pdb
 120 120 0 0 0
SMALL
GASTEIGER

@<TRIPOS>ATOM
      1  N          7.2520    5.7500   53.9950 N.3   108  CYS108     -0.1235
      2  CA         6.9360    4.5140   54.7020 C.3   108  CYS108      0.1677
      3  C          5.8660    3.6670   54.0260 C.2   108  CYS108      0.2270
      4  O          4.7150    4.0780   53.8810 O.2   108  CYS108     -0.2867
      5  CB         6.4960    4.8260   56.1310 C.3   108  CYS108      0.0956
      6  SG         6.4410    3.3570   57.1700 S.3   108  CYS108     -0.0801
      7  N         20.2580    4.0630   64.7140 N.3   171  GLN171     -0.1245
      8  CA        19.2540    3.0790   65.1080 C.3   171  GLN171      0.1566
      9  C         19.6770    2.5460   66.4680 C.2   171  GLN171      0.2260
     10  O         20.8650    2.3860   66.7300 O.2   171  GLN171     -0.2867
     11  CB        19.1880    1.9250   64.1160 C.3   171  GLN171      0.0367
     12  CG        18.4950    2.2350   62.8100 C.3   171  GLN171      0.0905
     13  CD        18.4360    1.0170   61.8980 C.2   171  GLN171      0.2608
     14  OE1       18.2940   -0.1250   62.3600 O.2   171  GLN171     -0.2717
     15  NE2       18.5310    1.2510   60.6010 N.am  171  GLN171     -0.0878
     16  N         14.0590   -3.0880   64.1580 N.3   258  PRO258     -0.2102
     17  CA        14.5840   -1.9030   63.4740 C.3   258  PRO258      0.1504
     18  C         13.9840   -0.7180   64.2390 C.2   258  PRO258      0.2576
     19  O         12.7570   -0.6020   64.3440 O.2   258  PRO258     -0.2718
     20  CB        14.0200   -2.0390   62.0630 C.3   258  PRO258      0.0282
     21  CG        12.6610   -2.6350   62.3200 C.3   258  PRO258      0.0208
     22  CD        12.9520   -3.6930   63.3860 C.3   258  PRO258      0.0893
     23  N         14.8350    0.1450   64.7860 N.am  259  ALA259     -0.1966
     24  CA        14.3500    1.2800   65.5610 C.3   259  ALA259      0.1728
     25  C         15.1230    2.5600   65.2640 C.2   259  ALA259      0.2616
     26  O         16.2090    2.7790   65.7880 O.2   259  ALA259     -0.2715
     27  CB        14.4420    0.9500   67.0390 C.3   259  ALA259      0.0334
     28  N         14.5530    3.4090   64.4270 N.am  260  VAL260     -0.1977
     29  CA        15.1900    4.6590   64.0610 C.3   260  VAL260      0.1596
     30  C         15.3070    5.5890   65.2510 C.2   260  VAL260      0.2287
     31  O         14.3420    5.7990   65.9810 O.2   260  VAL260     -0.2864
     32  CB        14.4110    5.3060   62.9370 C.3   260  VAL260      0.0276
     33  CG1       15.0210    6.6550   62.5440 C.3   260  VAL260      0.0022
     34  CG2       14.4140    4.3560   61.7730 C.3   260  VAL260      0.0022
     35  N         16.0940   10.6700   63.9510 N.3   263  MET263     -0.1245
     36  CA        15.1830   11.6070   63.3200 C.3   263  MET263      0.1570
     37  C         14.5230   12.5560   64.3140 C.2   263  MET263      0.2261
     38  O         14.5290   12.3190   65.5250 O.2   263  MET263     -0.2867
     39  CB        14.1440   10.8570   62.4890 C.3   263  MET263      0.0387
     40  CG        14.7700   10.1410   61.2910 C.3   263  MET263      0.0595
     41  SD        13.6060    9.3830   60.1550 S.3   263  MET263     -0.1393
     42  CE        13.2440   10.7920   59.1070 C.3   263  MET263      0.0692
     43  N         11.8670    5.4160   67.4200 N.3   277  PHE277     -0.1227
     44  CA        10.6530    4.6880   67.0900 C.3   277  PHE277      0.1736
     45  C         10.9770    3.3960   66.3230 C.2   277  PHE277      0.2596
     46  O         11.9210    3.3370   65.5370 O.2   277  PHE277     -0.2718
     47  CB         9.6910    5.5800   66.3020 C.3   277  PHE277      0.0547
     48  CG        10.2640    6.1330   65.0330 C.ar  277  PHE277     -0.0202
     49  CD1       10.4140    5.3240   63.9070 C.ar  277  PHE277     -0.0042
     50  CD2       10.6050    7.4750   64.9460 C.ar  277  PHE277     -0.0042
     51  CE1       10.8860    5.8400   62.7120 C.ar  277  PHE277     -0.0003
     52  CE2       11.0800    8.0060   63.7570 C.ar  277  PHE277     -0.0003
     53  CZ        11.2190    7.1880   62.6330 C.ar  277  PHE277     -0.0000
     54  N         10.1860    2.3620   66.5590 N.am  278  SER278     -0.1938
     55  CA        10.4260    1.0760   65.9280 C.3   278  SER278      0.2055
     56  C          9.1610    0.3710   65.4620 C.2   278  SER278      0.2644
     57  O          8.0660    0.6550   65.9360 O.2   278  SER278     -0.2714
     58  CB        11.1630    0.1720   66.9110 C.3   278  SER278      0.2130
     59  OG        10.4000    0.0200   68.0960 O.3   278  SER278     -0.2179
     60  N          9.3360   -0.5530   64.5230 N.am  279  GLY279     -0.1939
     61  CA         8.2300   -1.3350   64.0010 C.3   279  GLY279      0.2014
     62  C          8.7940   -2.7120   63.7160 C.2   279  GLY279      0.2639
     63  O          9.3490   -3.3500   64.6060 O.2   279  GLY279     -0.2714
     64  N          8.6520   -3.1830   62.4850 N.am  280  TRP280     -0.1959
     65  CA         9.2220   -4.4660   62.1260 C.3   280  TRP280      0.1771
     66  C          9.6960   -4.4600   60.6710 C.2   280  TRP280      0.2620
     67  O          9.1620   -3.7560   59.8260 O.2   280  TRP280     -0.2715
     68  CB         8.2440   -5.6150   62.4140 C.3   280  TRP280      0.0590
     69  CG         6.9100   -5.5030   61.7850 C.ar  280  TRP280      0.0006
     70  CD1        6.6060   -5.6740   60.4680 C.ar  280  TRP280      0.0946
     71  CD2        5.6750   -5.2270   62.4500 C.ar  280  TRP280      0.0152
     72  NE1        5.2570   -5.5250   60.2690 N.ar  280  TRP280     -0.2442
     73  CE2        4.6610   -5.2490   61.4740 C.ar  280  TRP280      0.0810
     74  CE3        5.3260   -4.9630   63.7820 C.ar  280  TRP280      0.0012
     75  CZ2        3.3160   -5.0180   61.7830 C.ar  280  TRP280      0.0191
     76  CZ3        3.9860   -4.7320   64.0900 C.ar  280  TRP280      0.0001
     77  CH2        3.0020   -4.7630   63.0930 C.ar  280  TRP280      0.0015
     78  N         10.7300   -5.2420   60.4060 N.am  281  TYR281     -0.1960
     79  CA        11.3410   -5.3220   59.0900 C.3   281  TYR281      0.1771
     80  C         10.5130   -5.8790   57.9580 C.2   281  TYR281      0.2619
     81  O          9.6730   -6.7690   58.1520 O.2   281  TYR281     -0.2715
     82  CB        12.6000   -6.1800   59.1600 C.3   281  TYR281      0.0574
     83  CG        13.8400   -5.4680   59.5940 C.ar  281  TYR281     -0.0198
     84  CD1       14.5030   -5.8440   60.7610 C.ar  281  TYR281     -0.0009
     85  CD2       14.4070   -4.4670   58.8010 C.ar  281  TYR281     -0.0009
     86  CE1       15.7120   -5.2480   61.1260 C.ar  281  TYR281      0.0417
     87  CE2       15.6190   -3.8590   59.1640 C.ar  281  TYR281      0.0417
     88  CZ        16.2580   -4.2590   60.3210 C.ar  281  TYR281      0.1957
     89  OH        17.4380   -3.6850   60.6810 O.3   281  TYR281     -0.2866
     90  N         10.7760   -5.3400   56.7700 N.am  282  MET282     -0.1977
     91  CA        10.1900   -5.8360   55.5390 C.3   282  MET282      0.1605
     92  C         11.4320   -6.6080   55.0820 C.2   282  MET282      0.2287
     93  O         12.5450   -6.0760   55.1330 O.2   282  MET282     -0.2864
     94  CB         9.8550   -4.7060   54.5510 C.3   282  MET282      0.0413
     95  CG         9.3340   -5.2190   53.1910 C.3   282  MET282      0.0598
     96  SD         8.6120   -3.9960   52.0660 S.3   282  MET282     -0.1393
     97  CE        10.0850   -3.1530   51.4800 C.3   282  MET282      0.0692
     98  N         14.8350   -5.2340   53.3240 N.3   285  GLU285     -0.1245
     99  CA        15.7170   -4.2800   53.9800 C.3   285  GLU285      0.1567
    100  C         17.0120   -4.9460   54.4070 C.2   285  GLU285      0.2260
    101  O         18.0840   -4.3480   54.3420 O.2   285  GLU285     -0.2867
    102  CB        15.0450   -3.6770   55.2120 C.3   285  GLU285      0.0388
    103  CG        13.7240   -2.9910   54.9480 C.3   285  GLU285      0.1160
    104  CD        13.1700   -2.3680   56.2050 C.2   285  GLU285      0.3649
    105  OE1       13.8120   -1.4250   56.7370 O.co2 285  GLU285     -0.2457
    106  OE2       12.1020   -2.8270   56.6630 O.co2 285  GLU285     -0.2457
    107  N         10.9680    5.5130   47.2650 N.3   371  TRP371     -0.1241
    108  CA        11.2100    4.7700   48.4920 C.3   371  TRP371      0.1605
    109  C         10.1920    3.6540   48.7250 C.2   371  TRP371      0.2264
    110  O         10.5170    2.6350   49.3440 O.2   371  TRP371     -0.2867
    111  CB        11.1980    5.7150   49.6990 C.3   371  TRP371      0.0550
    112  CG        12.5010    6.3910   49.9510 C.ar  371  TRP371      0.0003
    113  CD1       13.1720    7.2290   49.1040 C.ar  371  TRP371      0.0946
    114  CD2       13.3200    6.2500   51.1150 C.ar  371  TRP371      0.0152
    115  NE1       14.3610    7.6130   49.6690 N.ar  371  TRP371     -0.2442
    116  CE2       14.4780    7.0260   50.9040 C.ar  371  TRP371      0.0810
    117  CE3       13.1880    5.5420   52.3160 C.ar  371  TRP371      0.0012
    118  CZ2       15.5040    7.1120   51.8540 C.ar  371  TRP371      0.0191
    119  CZ3       14.2080    5.6250   53.2610 C.ar  371  TRP371      0.0001
    120  CH2       15.3540    6.4070   53.0220 C.ar  371  TRP371      0.0015
@<TRIPOS>BOND
     1   107   108    1
     2   108   109    1
     3   108   111    1
     4   109   110    2
     5   113   115   ar
     6   113   112   ar
     7   115   116   ar
     8   111   112    1
     9   112   114   ar
    10   116   114   ar
    11   116   118   ar
    12   114   117   ar
    13    97    96    1
    14   118   120   ar
    15    96    95    1
    16   117   119   ar
    17   120   119   ar
    18    95    94    1
    19    98    99    1
    20     4     3    2
    21    99   100    1
    22    99   102    1
    23     1     2    1
    24     3     2    1
    25   101   100    2
    26    94    91    1
    27     2     5    1
    28   103   102    1
    29   103   104    1
    30    92    93    2
    31    92    91    1
    32    91    90    1
    33     5     6    1
    34   104   106   ar
    35   104   105   ar
    36    90    80   am
    37    80    81    2
    38    80    79    1
    39    85    87   ar
    40    85    83   ar
    41    79    82    1
    42    79    78    1
    43    42    41    1
    44    82    83    1
    45    87    88   ar
    46    83    84   ar
    47    67    66    2
    48    41    40    1
    49    72    70   ar
    50    72    73   ar
    51    88    89    1
    52    88    86   ar
    53    78    66   am
    54    70    69   ar
    55    15    13   am
    56    66    65    1
    57    84    86   ar
    58    40    39    1
    59    73    75   ar
    60    73    71   ar
    61    34    32    1
    62    75    77   ar
    63    69    68    1
    64    69    71   ar
    65    13    14    2
    66    13    12    1
    67    20    21    1
    68    20    17    1
    69    65    68    1
    70    65    64    1
    71    21    22    1
    72    71    74   ar
    73    64    62   am
    74    39    36    1
    75    33    32    1
    76    53    51   ar
    77    53    52   ar
    78    51    49   ar
    79    12    11    1
    80    32    29    1
    81    77    76   ar
    82    36    35    1
    83    36    37    1
    84    22    16    1
    85    17    16    1
    86    17    18    1
    87    62    61    1
    88    62    63    2
    89    52    50   ar
    90    74    76   ar
    91    49    48   ar
    92    61    60    1
    93    29    28    1
    94    29    30    1
    95    11     8    1
    96    18    19    2
    97    18    23   am
    98    37    38    2
    99    28    25   am
   100    60    56   am
   101     7     8    1
   102    23    24    1
   103    50    48   ar
   104    48    47    1
   105     8     9    1
   106    30    31    2
   107    25    24    1
   108    25    26    2
   109    56    55    1
   110    56    57    2
   111    46    45    2
   112    24    27    1
   113    55    54    1
   114    55    58    1
   115    47    44    1
   116    45    54   am
   117    45    44    1
   118     9    10    2
   119    58    59    1
   120    44    43    1
