@<TRIPOS>MOLECULE
tmp/1k2uB03.pdb
 141 140 0 0 0
SMALL
GASTEIGER

@<TRIPOS>ATOM
      1  N          7.1470    5.6680   53.9290 N.3   108  CYS108     -0.1235
      2  CA         6.8490    4.4390   54.6530 C.3   108  CYS108      0.1677
      3  C          5.7840    3.5840   53.9860 C.2   108  CYS108      0.2270
      4  O          4.6420    4.0100   53.8080 O.2   108  CYS108     -0.2867
      5  CB         6.4150    4.7680   56.0790 C.3   108  CYS108      0.0956
      6  SG         6.3460    3.3060   57.1270 S.3   108  CYS108     -0.0801
      7  N         21.9990    5.7880   64.9130 N.3   170  SER170     -0.1202
      8  CA        21.0220    5.9940   63.8460 C.3   170  SER170      0.2020
      9  C         19.8280    5.0580   64.0770 C.2   170  SER170      0.2618
     10  O         18.6940    5.3730   63.7310 O.2   170  SER170     -0.2717
     11  CB        21.6640    5.7440   62.4780 C.3   170  SER170      0.2103
     12  OG        22.3500    4.5060   62.4440 O.3   170  SER170     -0.2182
     13  N         20.1100    3.9020   64.6630 N.am  171  GLN171     -0.1979
     14  CA        19.0940    2.9230   65.0160 C.3   171  GLN171      0.1601
     15  C         19.4940    2.4290   66.3990 C.2   171  GLN171      0.2287
     16  O         20.6790    2.3760   66.7200 O.2   171  GLN171     -0.2864
     17  CB        19.0640    1.7660   64.0220 C.3   171  GLN171      0.0394
     18  CG        18.2700    2.0450   62.7590 C.3   171  GLN171      0.0908
     19  CD        18.2870    0.8780   61.7850 C.2   171  GLN171      0.2608
     20  OE1       18.2350   -0.2870   62.1870 O.2   171  GLN171     -0.2717
     21  NE2       18.3430    1.1860   60.4970 N.am  171  GLN171     -0.0878
     22  N         13.8830   -3.1810   64.1110 N.3   258  PRO258     -0.2116
     23  CA        14.3480   -1.9820   63.4130 C.3   258  PRO258      0.1372
     24  C         13.7870   -0.7980   64.1920 C.2   258  PRO258      0.2244
     25  O         12.5660   -0.6290   64.2890 O.2   258  PRO258     -0.2868
     26  CB        13.7330   -2.1320   62.0240 C.3   258  PRO258      0.0268
     27  CG        12.4650   -2.8220   62.3000 C.3   258  PRO258      0.0207
     28  CD        12.8160   -3.8500   63.3440 C.3   258  PRO258      0.0892
     29  N         14.4800    3.2260   64.3740 N.3   260  VAL260     -0.1245
     30  CA        15.1020    4.4750   63.9590 C.3   260  VAL260      0.1561
     31  C         15.2230    5.4350   65.1300 C.2   260  VAL260      0.2260
     32  O         14.2610    5.6520   65.8640 O.2   260  VAL260     -0.2867
     33  CB        14.2890    5.1000   62.8220 C.3   260  VAL260      0.0252
     34  CG1       14.8160    6.4780   62.4740 C.3   260  VAL260      0.0019
     35  CG2       14.3620    4.1790   61.6130 C.3   260  VAL260      0.0019
     36  N         17.5330    8.6140   64.9110 N.3   262  ASN262     -0.1225
     37  CA        18.1730    9.8900   64.6020 C.3   262  ASN262      0.1785
     38  C         17.2620   10.9000   63.9190 C.2   262  ASN262      0.2597
     39  O         17.7230   11.9330   63.4370 O.2   262  ASN262     -0.2718
     40  CB        19.4160    9.6720   63.7400 C.3   262  ASN262      0.1169
     41  CG        19.1180    8.9100   62.4720 C.2   262  ASN262      0.2627
     42  OD1       17.9550    8.6410   62.1470 O.2   262  ASN262     -0.2716
     43  ND2       20.1680    8.5590   61.7360 N.am  262  ASN262     -0.0877
     44  N         15.9670   10.6150   63.8840 N.am  263  MET263     -0.1979
     45  CA        15.0470   11.5470   63.2630 C.3   263  MET263      0.1605
     46  C         14.4180   12.4970   64.2660 C.2   263  MET263      0.2287
     47  O         14.4540   12.2720   65.4800 O.2   263  MET263     -0.2864
     48  CB        13.9770   10.8000   62.4720 C.3   263  MET263      0.0413
     49  CG        14.5500   10.1170   61.2360 C.3   263  MET263      0.0598
     50  SD        13.3460    9.3230   60.1640 S.3   263  MET263     -0.1393
     51  CE        13.1830   10.6000   58.9050 C.3   263  MET263      0.0692
     52  N         11.7700    5.2760   67.2760 N.3   277  PHE277     -0.1227
     53  CA        10.5690    4.5300   66.9520 C.3   277  PHE277      0.1736
     54  C         10.9250    3.2590   66.1900 C.2   277  PHE277      0.2596
     55  O         11.8270    3.2380   65.3570 O.2   277  PHE277     -0.2718
     56  CB         9.5810    5.3960   66.1580 C.3   277  PHE277      0.0547
     57  CG        10.1580    6.0120   64.9120 C.ar  277  PHE277     -0.0202
     58  CD1       10.2030    5.2990   63.7210 C.ar  277  PHE277     -0.0042
     59  CD2       10.6390    7.3130   64.9300 C.ar  277  PHE277     -0.0042
     60  CE1       10.7140    5.8700   62.5640 C.ar  277  PHE277     -0.0003
     61  CE2       11.1520    7.8920   63.7830 C.ar  277  PHE277     -0.0003
     62  CZ        11.1880    7.1670   62.5940 C.ar  277  PHE277     -0.0000
     63  N         10.1960    2.1960   66.4880 N.am  278  SER278     -0.1938
     64  CA        10.4410    0.9160   65.8650 C.3   278  SER278      0.2055
     65  C          9.1540    0.2440   65.3870 C.2   278  SER278      0.2644
     66  O          8.0540    0.5680   65.8470 O.2   278  SER278     -0.2714
     67  CB        11.1600    0.0090   66.8620 C.3   278  SER278      0.2130
     68  OG        10.3780   -0.1490   68.0310 O.3   278  SER278     -0.2179
     69  N          9.3160   -0.6820   64.4460 N.am  279  GLY279     -0.1939
     70  CA         8.2000   -1.4330   63.9080 C.3   279  GLY279      0.2014
     71  C          8.7400   -2.8320   63.6860 C.2   279  GLY279      0.2639
     72  O          9.1710   -3.4930   64.6280 O.2   279  GLY279     -0.2714
     73  N          8.7030   -3.2920   62.4440 N.am  280  TRP280     -0.1959
     74  CA         9.2450   -4.5930   62.1070 C.3   280  TRP280      0.1771
     75  C          9.7450   -4.5540   60.6680 C.2   280  TRP280      0.2620
     76  O          9.3190   -3.7380   59.8690 O.2   280  TRP280     -0.2715
     77  CB         8.2260   -5.7230   62.3500 C.3   280  TRP280      0.0590
     78  CG         6.9130   -5.6340   61.6440 C.ar  280  TRP280      0.0006
     79  CD1        6.6650   -5.9050   60.3270 C.ar  280  TRP280      0.0946
     80  CD2        5.6450   -5.3280   62.2370 C.ar  280  TRP280      0.0152
     81  NE1        5.3210   -5.7920   60.0640 N.ar  280  TRP280     -0.2442
     82  CE2        4.6700   -5.4420   61.2190 C.ar  280  TRP280      0.0810
     83  CE3        5.2350   -4.9780   63.5320 C.ar  280  TRP280      0.0012
     84  CZ2        3.3030   -5.2140   61.4560 C.ar  280  TRP280      0.0191
     85  CZ3        3.8700   -4.7500   63.7690 C.ar  280  TRP280      0.0001
     86  CH2        2.9270   -4.8730   62.7340 C.ar  280  TRP280      0.0015
     87  N         10.6700   -5.4410   60.3550 N.am  281  TYR281     -0.1960
     88  CA        11.2880   -5.4640   59.0470 C.3   281  TYR281      0.1771
     89  C         10.4910   -6.0160   57.9040 C.2   281  TYR281      0.2619
     90  O          9.6700   -6.9230   58.0760 O.2   281  TYR281     -0.2715
     91  CB        12.5870   -6.2670   59.1020 C.3   281  TYR281      0.0574
     92  CG        13.8000   -5.5130   59.5680 C.ar  281  TYR281     -0.0198
     93  CD1       14.4380   -5.8510   60.7610 C.ar  281  TYR281     -0.0009
     94  CD2       14.3810   -4.5460   58.7630 C.ar  281  TYR281     -0.0009
     95  CE1       15.6470   -5.2460   61.1330 C.ar  281  TYR281      0.0417
     96  CE2       15.5860   -3.9300   59.1190 C.ar  281  TYR281      0.0417
     97  CZ        16.2030   -4.2930   60.2970 C.ar  281  TYR281      0.1957
     98  OH        17.3910   -3.7030   60.6270 O.3   281  TYR281     -0.2866
     99  N         10.7630   -5.4430   56.7320 N.am  282  MET282     -0.1977
    100  CA        10.2180   -5.9110   55.4690 C.3   282  MET282      0.1605
    101  C         11.4840   -6.6490   55.0020 C.2   282  MET282      0.2287
    102  O         12.5800   -6.0780   55.0130 O.2   282  MET282     -0.2864
    103  CB         9.8760   -4.7530   54.5160 C.3   282  MET282      0.0413
    104  CG         9.4200   -5.2360   53.1330 C.3   282  MET282      0.0598
    105  SD         8.5880   -4.0360   52.0780 S.3   282  MET282     -0.1393
    106  CE         9.9910   -3.1930   51.2920 C.3   282  MET282      0.0692
    107  N         14.8030   -5.2470   53.2600 N.3   285  GLU285     -0.1245
    108  CA        15.6730   -4.2880   53.9230 C.3   285  GLU285      0.1567
    109  C         16.9840   -4.9550   54.3160 C.2   285  GLU285      0.2260
    110  O         18.0490   -4.3520   54.2330 O.2   285  GLU285     -0.2867
    111  CB        15.0050   -3.7170   55.1760 C.3   285  GLU285      0.0388
    112  CG        13.6840   -2.9980   54.9280 C.3   285  GLU285      0.1160
    113  CD        13.1070   -2.4140   56.2000 C.2   285  GLU285      0.3649
    114  OE1       13.7210   -1.4800   56.7730 O.co2 285  GLU285     -0.2457
    115  OE2       12.0410   -2.8920   56.6310 O.co2 285  GLU285     -0.2457
    116  N         10.9620    5.5770   47.1460 N.3   371  TRP371     -0.1241
    117  CA        11.1840    4.8250   48.3620 C.3   371  TRP371      0.1605
    118  C         10.1890    3.6800   48.5830 C.2   371  TRP371      0.2264
    119  O         10.5690    2.6450   49.1310 O.2   371  TRP371     -0.2867
    120  CB        11.1720    5.7760   49.5690 C.3   371  TRP371      0.0550
    121  CG        12.5120    6.4030   49.8470 C.ar  371  TRP371      0.0003
    122  CD1       13.2600    7.1720   48.9930 C.ar  371  TRP371      0.0946
    123  CD2       13.2810    6.2690   51.0450 C.ar  371  TRP371      0.0152
    124  NE1       14.4480    7.5180   49.5910 N.ar  371  TRP371     -0.2442
    125  CE2       14.4860    6.9780   50.8490 C.ar  371  TRP371      0.0810
    126  CE3       13.0680    5.6160   52.2650 C.ar  371  TRP371      0.0012
    127  CZ2       15.4740    7.0520   51.8290 C.ar  371  TRP371      0.0191
    128  CZ3       14.0500    5.6900   53.2400 C.ar  371  TRP371      0.0001
    129  CH2       15.2420    6.4040   53.0150 C.ar  371  TRP371      0.0015
    130  N         14.7680   14.7180   59.0740 N.3   399  TYR399     -0.1241
    131  CA        16.1410   14.3670   59.3610 C.3   399  TYR399      0.1605
    132  C         16.7150   15.5650   60.0660 C.2   399  TYR399      0.2264
    133  O         16.1690   16.6650   59.9960 O.2   399  TYR399     -0.2867
    134  CB        16.9350   14.1240   58.0860 C.3   399  TYR399      0.0534
    135  CG        16.3470   13.0660   57.2010 C.ar  399  TYR399     -0.0201
    136  CD1       15.5790   13.4180   56.1000 C.ar  399  TYR399     -0.0009
    137  CD2       16.5660   11.7120   57.4590 C.ar  399  TYR399     -0.0009
    138  CE1       15.0390   12.4570   55.2590 C.ar  399  TYR399      0.0417
    139  CE2       16.0320   10.7280   56.6250 C.ar  399  TYR399      0.0417
    140  CZ        15.2740   11.1180   55.5290 C.ar  399  TYR399      0.1957
    141  OH        14.7620   10.1790   54.6700 O.3   399  TYR399     -0.2866
@<TRIPOS>BOND
     1   116   117    1
     2   117   118    1
     3   117   120    1
     4   118   119    2
     5   122   124   ar
     6   122   121   ar
     7   120   121    1
     8   124   125   ar
     9   121   123   ar
    10   125   123   ar
    11   125   127   ar
    12   123   126   ar
    13   106   105    1
    14   127   129   ar
    15   105   104    1
    16   126   128   ar
    17   129   128   ar
    18   104   103    1
    19   107   108    1
    20     4     3    2
    21   108   109    1
    22   108   111    1
    23     1     2    1
    24     3     2    1
    25   110   109    2
    26   103   100    1
    27     2     5    1
    28   141   140    1
    29   112   111    1
    30   112   113    1
    31   101   102    2
    32   101   100    1
    33   138   140   ar
    34   138   136   ar
    35   100    99    1
    36   140   139   ar
    37     5     6    1
    38   136   135   ar
    39   113   115   ar
    40   113   114   ar
    41   139   137   ar
    42    99    89   am
    43   135   137   ar
    44   135   134    1
    45    89    90    2
    46    89    88    1
    47   134   131    1
    48    94    96   ar
    49    94    92   ar
    50    51    50    1
    51    88    91    1
    52    88    87    1
    53   130   131    1
    54    91    92    1
    55    96    97   ar
    56   131   132    1
    57    92    93   ar
    58    76    75    2
    59   133   132    2
    60    81    79   ar
    61    81    82   ar
    62    50    49    1
    63    97    98    1
    64    97    95   ar
    65    79    78   ar
    66    87    75   am
    67    21    19   am
    68    75    74    1
    69    93    95   ar
    70    82    84   ar
    71    82    80   ar
    72    49    48    1
    73    84    86   ar
    74    35    33    1
    75    78    80   ar
    76    78    77    1
    77    43    41   am
    78    19    20    2
    79    19    18    1
    80    26    27    1
    81    26    23    1
    82    74    77    1
    83    74    73    1
    84    42    41    2
    85    80    83   ar
    86    27    28    1
    87    12    11    1
    88    73    71   am
    89    48    45    1
    90    41    40    1
    91    34    33    1
    92    11     8    1
    93    60    62   ar
    94    60    58   ar
    95    62    61   ar
    96    86    85   ar
    97    18    17    1
    98    33    30    1
    99    45    44    1
   100    45    46    1
   101    28    22    1
   102    23    22    1
   103    23    24    1
   104    39    38    2
   105    83    85   ar
   106    71    70    1
   107    71    72    2
   108    58    57   ar
   109    10     9    2
   110    40    37    1
   111    61    59   ar
   112     8     9    1
   113     8     7    1
   114    44    38   am
   115    70    69    1
   116    38    37    1
   117    30    29    1
   118    30    31    1
   119    17    14    1
   120     9    13   am
   121    24    25    2
   122    46    47    2
   123    69    65   am
   124    37    36    1
   125    13    14    1
   126    57    59   ar
   127    57    56    1
   128    14    15    1
   129    31    32    2
   130    55    54    2
   131    65    66    2
   132    65    64    1
   133    64    63    1
   134    64    67    1
   135    56    53    1
   136    54    63   am
   137    54    53    1
   138    15    16    2
   139    67    68    1
   140    53    52    1
