@<TRIPOS>MOLECULE
tmp/1k2vA00.pdb
 179 177 0 0 0
SMALL
GASTEIGER

@<TRIPOS>ATOM
      1  N         24.6210  -14.7620  -21.7620 N.3    11  GLU11      -0.1231
      2  CA        24.7860  -14.3380  -23.1510 C.3    11  GLU11       0.1699
      3  C         24.2590  -15.4750  -24.0130 C.2    11  GLU11       0.2592
      4  O         24.2200  -16.6260  -23.5660 O.2    11  GLU11      -0.2718
      5  CB        26.2610  -14.0550  -23.4520 C.3    11  GLU11       0.0402
      6  CG        26.4820  -12.9680  -24.4940 C.3    11  GLU11       0.1161
      7  CD        26.1610  -13.4230  -25.9020 C.2    11  GLU11       0.3649
      8  OE1       26.8700  -14.3100  -26.3990 O.co2  11  GLU11      -0.2457
      9  OE2       25.2030  -12.8990  -26.5110 O.co2  11  GLU11      -0.2457
     10  N         23.8620  -15.1660  -25.2420 N.am   12  TRP12      -0.1976
     11  CA        23.2860  -16.1830  -26.1060 C.3    12  TRP12       0.1640
     12  C         24.2130  -17.2510  -26.6670 C.2    12  TRP12       0.2290
     13  O         23.7520  -18.3340  -27.0080 O.2    12  TRP12      -0.2864
     14  CB        22.5040  -15.5270  -27.2380 C.3    12  TRP12       0.0576
     15  CG        21.4250  -14.6110  -26.7300 C.ar   12  TRP12       0.0006
     16  CD1       20.7870  -14.6740  -25.5160 C.ar   12  TRP12       0.0946
     17  CD2       20.8740  -13.4840  -27.4140 C.ar   12  TRP12       0.0152
     18  NE1       19.8770  -13.6490  -25.4060 N.ar   12  TRP12      -0.2442
     19  CE2       19.9090  -12.9040  -26.5550 C.ar   12  TRP12       0.0810
     20  CE3       21.1020  -12.9050  -28.6700 C.ar   12  TRP12       0.0012
     21  CZ2       19.1730  -11.7710  -26.9150 C.ar   12  TRP12       0.0191
     22  CZ3       20.3690  -11.7750  -29.0260 C.ar   12  TRP12       0.0001
     23  CH2       19.4170  -11.2230  -28.1490 C.ar   12  TRP12       0.0015
     24  N         17.8330  -11.9180  -21.2990 N.3    30  ASP30      -0.1239
     25  CA        17.0520  -11.4250  -22.4190 C.3    30  ASP30       0.1674
     26  C         16.4190  -12.5150  -23.2790 C.2    30  ASP30       0.2266
     27  O         16.7520  -12.6700  -24.4560 O.2    30  ASP30      -0.2867
     28  CB        17.9340  -10.5130  -23.2760 C.3    30  ASP30       0.1410
     29  CG        17.1290   -9.6620  -24.2290 C.2    30  ASP30       0.3668
     30  OD1       17.7480   -8.8640  -24.9650 O.co2  30  ASP30      -0.2456
     31  OD2       15.8820   -9.7920  -24.2380 O.co2  30  ASP30      -0.2456
     32  N         14.5130  -11.0160  -26.6070 N.3    33  ASN33      -0.1240
     33  CA        15.2840  -10.7990  -27.8210 C.3    33  ASN33       0.1653
     34  C         15.9100  -12.0850  -28.3340 C.2    33  ASN33       0.2266
     35  O         16.1660  -12.2160  -29.5260 O.2    33  ASN33      -0.2867
     36  CB        16.3370   -9.7180  -27.5920 C.3    33  ASN33       0.1155
     37  CG        15.7140   -8.3370  -27.4380 C.2    33  ASN33       0.2627
     38  OD1       14.8760   -7.9370  -28.2480 O.2    33  ASN33      -0.2716
     39  ND2       16.1220   -7.6010  -26.4050 N.am   33  ASN33      -0.0877
     40  N         16.1910  -12.7290  -32.3500 N.3    37  TRP37      -0.1241
     41  CA        17.4400  -12.8410  -33.0960 C.3    37  TRP37       0.1605
     42  C         18.0310  -14.2410  -33.2360 C.2    37  TRP37       0.2264
     43  O         18.6840  -14.5400  -34.2370 O.2    37  TRP37      -0.2867
     44  CB        18.4960  -11.9240  -32.4870 C.3    37  TRP37       0.0550
     45  CG        18.1220  -10.4870  -32.4850 C.ar   37  TRP37       0.0003
     46  CD1       17.2920   -9.8520  -31.6010 C.ar   37  TRP37       0.0946
     47  CD2       18.6000   -9.4800  -33.3830 C.ar   37  TRP37       0.0152
     48  NE1       17.2330   -8.5070  -31.8890 N.ar   37  TRP37      -0.2442
     49  CE2       18.0250   -8.2510  -32.9780 C.ar   37  TRP37       0.0810
     50  CE3       19.4630   -9.4930  -34.4880 C.ar   37  TRP37       0.0012
     51  CZ2       18.2890   -7.0470  -33.6400 C.ar   37  TRP37       0.0191
     52  CZ3       19.7270   -8.2930  -35.1470 C.ar   37  TRP37       0.0001
     53  CH2       19.1400   -7.0870  -34.7180 C.ar   37  TRP37       0.0015
     54  N         18.6610   -7.9350  -19.4290 N.3    52  LEU52      -0.1231
     55  CA        19.4970   -7.7310  -20.6150 C.3    52  LEU52       0.1693
     56  C         20.9060   -8.2700  -20.3900 C.2    52  LEU52       0.2592
     57  O         21.4510   -8.1680  -19.2980 O.2    52  LEU52      -0.2718
     58  CB        19.5790   -6.2420  -20.9760 C.3    52  LEU52       0.0284
     59  CG        18.2890   -5.4590  -21.2390 C.3    52  LEU52       0.0019
     60  CD1       18.6630   -4.0860  -21.7860 C.3    52  LEU52       0.0001
     61  CD2       17.4050   -6.1910  -22.2310 C.3    52  LEU52       0.0001
     62  N         21.4980   -8.8320  -21.4360 N.am   53  ARG53      -0.1966
     63  CA        22.8400   -9.3940  -21.3360 C.3    53  ARG53       0.1729
     64  C         23.8690   -8.3830  -20.8560 C.2    53  ARG53       0.2616
     65  O         24.8090   -8.7390  -20.1470 O.2    53  ARG53      -0.2715
     66  CB        23.2620   -9.9730  -22.6850 C.3    53  ARG53       0.0348
     67  CG        22.3510  -11.0870  -23.1470 C.3    53  ARG53       0.0492
     68  CD        21.7860  -10.7750  -24.5050 C.3    53  ARG53       0.2205
     69  NE        22.7660  -10.9900  -25.5470 N.pl3  53  ARG53      -0.0865
     70  CZ        22.9120  -10.2250  -26.6220 C.cat  53  ARG53       0.5346
     71  NH1       22.1390   -9.1660  -26.8090 N.pl3  53  ARG53       0.1354
     72  NH2       23.8380  -10.5340  -27.5160 N.pl3  53  ARG53       0.1354
     73  N         23.6870   -7.1220  -21.2350 N.am   54  THR54      -0.1951
     74  CA        24.6150   -6.0700  -20.8280 C.3    54  THR54       0.1897
     75  C         24.2770   -5.4780  -19.4630 C.2    54  THR54       0.2313
     76  O         25.0820   -4.7600  -18.8720 O.2    54  THR54      -0.2863
     77  CB        24.6440   -4.9340  -21.8630 C.3    54  THR54       0.1794
     78  OG1       23.3150   -4.4480  -22.0740 O.3    54  THR54      -0.2208
     79  CG2       25.2210   -5.4400  -23.1850 C.3    54  THR54       0.0378
     80  N         32.3000   -9.6110  -23.4920 N.3    75  TYR75      -0.1241
     81  CA        30.9640   -9.0840  -23.7230 C.3    75  TYR75       0.1605
     82  C         30.1770   -9.0200  -22.4120 C.2    75  TYR75       0.2264
     83  O         30.3110   -9.8920  -21.5540 O.2    75  TYR75      -0.2867
     84  CB        30.2160   -9.9700  -24.7180 C.3    75  TYR75       0.0534
     85  CG        28.8460   -9.4460  -25.0620 C.ar   75  TYR75      -0.0201
     86  CD1       28.6740   -8.4960  -26.0680 C.ar   75  TYR75      -0.0009
     87  CD2       27.7250   -9.8510  -24.3390 C.ar   75  TYR75      -0.0009
     88  CE1       27.4160   -7.9580  -26.3450 C.ar   75  TYR75       0.0417
     89  CE2       26.4660   -9.3210  -24.6030 C.ar   75  TYR75       0.0417
     90  CZ        26.3170   -8.3760  -25.6050 C.ar   75  TYR75       0.1957
     91  OH        25.0720   -7.8430  -25.8600 O.3    75  TYR75      -0.2866
     92  N         22.1900   -7.8560  -42.5520 N.3   150  THR150     -0.1218
     93  CA        21.0340   -7.6910  -41.6930 C.3   150  THR150      0.1862
     94  C         20.9430   -6.1900  -41.4740 C.2   150  THR150      0.2287
     95  O         21.9620   -5.5140  -41.3310 O.2   150  THR150     -0.2866
     96  CB        21.1660   -8.4260  -40.3430 C.3   150  THR150      0.1770
     97  OG1       19.8810   -8.4470  -39.7070 O.3   150  THR150     -0.2211
     98  CG2       22.1560   -7.7350  -39.4290 C.3   150  THR150      0.0375
     99  N         20.4760   -2.9360  -39.5010 N.3   152  ILE152     -0.1245
    100  CA        20.5890   -2.4280  -38.1420 C.3   152  ILE152      0.1561
    101  C         19.4830   -1.3830  -37.9840 C.2   152  ILE152      0.2260
    102  O         18.7160   -1.3970  -37.0170 O.2   152  ILE152     -0.2867
    103  CB        21.9570   -1.7750  -37.9180 C.3   152  ILE152      0.0252
    104  CG1       23.0470   -2.8350  -38.0720 C.3   152  ILE152      0.0019
    105  CG2       22.0160   -1.1320  -36.5410 C.3   152  ILE152      0.0019
    106  CD1       24.4520   -2.2870  -37.9760 C.3   152  ILE152      0.0001
    107  N         24.3950   -4.2250  -41.6040 N.3   158  LEU158     -0.1245
    108  CA        25.4850   -4.9650  -40.9980 C.3   158  LEU158      0.1561
    109  C         25.8430   -6.0020  -42.0530 C.2   158  LEU158      0.2260
    110  O         24.9620   -6.6210  -42.6470 O.2   158  LEU158     -0.2867
    111  CB        25.0140   -5.6810  -39.7320 C.3   158  LEU158      0.0270
    112  CG        25.8430   -5.6580  -38.4440 C.3   158  LEU158      0.0019
    113  CD1       25.7100   -7.0300  -37.7900 C.3   158  LEU158      0.0001
    114  CD2       27.2980   -5.3480  -38.6970 C.3   158  LEU158      0.0001
    115  N         34.7650   -6.4110  -37.4710 N.3   184  ASN184     -0.1240
    116  CA        35.1310   -6.3180  -36.0730 C.3   184  ASN184      0.1653
    117  C         35.5120   -7.7540  -35.7030 C.2   184  ASN184      0.2266
    118  O         35.4970   -8.6530  -36.5580 O.2   184  ASN184     -0.2867
    119  CB        33.9490   -5.8420  -35.2160 C.3   184  ASN184      0.1155
    120  CG        32.6940   -6.6580  -35.4560 C.2   184  ASN184      0.2627
    121  OD1       32.7590   -7.8670  -35.6550 O.2   184  ASN184     -0.2716
    122  ND2       31.5410   -5.9970  -35.4390 N.am  184  ASN184     -0.0877
    123  N         33.9210   -9.9090  -34.0440 N.3   186  TRP186     -0.1241
    124  CA        32.8000  -10.8110  -34.2100 C.3   186  TRP186      0.1605
    125  C         32.4760  -11.1510  -35.6570 C.2   186  TRP186      0.2264
    126  O         31.5430  -11.9070  -35.9160 O.2   186  TRP186     -0.2867
    127  CB        31.5740  -10.2330  -33.5000 C.3   186  TRP186      0.0550
    128  CG        31.8670   -9.8890  -32.0780 C.ar  186  TRP186      0.0003
    129  CD1       32.5200   -8.7780  -31.6190 C.ar  186  TRP186      0.0946
    130  CD2       31.6010  -10.7020  -30.9300 C.ar  186  TRP186      0.0152
    131  NE1       32.6810   -8.8540  -30.2590 N.ar  186  TRP186     -0.2442
    132  CE2       32.1260  -10.0230  -29.8090 C.ar  186  TRP186      0.0810
    133  CE3       30.9700  -11.9390  -30.7400 C.ar  186  TRP186      0.0012
    134  CZ2       32.0410  -10.5390  -28.5080 C.ar  186  TRP186      0.0191
    135  CZ3       30.8800  -12.4560  -29.4370 C.ar  186  TRP186      0.0001
    136  CH2       31.4150  -11.7530  -28.3430 C.ar  186  TRP186      0.0015
    137  N         31.7160   -8.8640  -38.2220 N.3   188  SER188     -0.1217
    138  CA        30.7880   -7.9830  -38.9260 C.3   188  SER188      0.1889
    139  C         31.2350   -6.5340  -38.9010 C.2   188  SER188      0.2288
    140  O         32.1840   -6.1700  -38.2130 O.2   188  SER188     -0.2866
    141  CB        29.3900   -8.0820  -38.3030 C.3   188  SER188      0.2089
    142  OG        29.4300   -7.6710  -36.9460 O.3   188  SER188     -0.2183
    143  N         21.3080  -16.3510  -35.5220 N.3   242  TRP242     -0.1227
    144  CA        22.2300  -15.6270  -34.6650 C.3   242  TRP242      0.1737
    145  C         23.6090  -15.6380  -35.3080 C.2   242  TRP242      0.2595
    146  O         24.1760  -16.6940  -35.5710 O.2   242  TRP242     -0.2718
    147  CB        22.2990  -16.2450  -33.2700 C.3   242  TRP242      0.0564
    148  CG        23.0190  -15.3730  -32.2830 C.ar  242  TRP242      0.0003
    149  CD1       23.9080  -15.7760  -31.3280 C.ar  242  TRP242      0.0946
    150  CD2       22.9010  -13.9510  -32.1460 C.ar  242  TRP242      0.0152
    151  NE1       24.3500  -14.6940  -30.6040 N.ar  242  TRP242     -0.2442
    152  CE2       23.7470  -13.5610  -31.0890 C.ar  242  TRP242      0.0810
    153  CE3       22.1600  -12.9680  -32.8190 C.ar  242  TRP242      0.0012
    154  CZ2       23.8780  -12.2320  -30.6850 C.ar  242  TRP242      0.0191
    155  CZ3       22.2900  -11.6430  -32.4200 C.ar  242  TRP242      0.0001
    156  CH2       23.1450  -11.2870  -31.3610 C.ar  242  TRP242      0.0015
    157  N         24.1510  -14.4500  -35.5440 N.am  243  PHE243     -0.1962
    158  CA        25.4500  -14.3290  -36.1950 C.3   243  PHE243      0.1771
    159  C         26.6230  -14.6020  -35.2750 C.2   243  PHE243      0.2619
    160  O         27.7240  -14.8600  -35.7430 O.2   243  PHE243     -0.2715
    161  CB        25.6180  -12.9220  -36.7640 C.3   243  PHE243      0.0574
    162  CG        24.3390  -12.1680  -36.8940 C.ar  243  PHE243     -0.0200
    163  CD1       24.0910  -11.0670  -36.0870 C.ar  243  PHE243     -0.0042
    164  CD2       23.3880  -12.5440  -37.8360 C.ar  243  PHE243     -0.0042
    165  CE1       22.9110  -10.3430  -36.2170 C.ar  243  PHE243     -0.0003
    166  CE2       22.2030  -11.8270  -37.9750 C.ar  243  PHE243     -0.0003
    167  CZ        21.9660  -10.7250  -37.1640 C.ar  243  PHE243     -0.0000
    168  N         26.3910  -14.5370  -33.9700 N.am  244  TYR244     -0.1974
    169  CA        27.4600  -14.7350  -33.0100 C.3   244  TYR244      0.1639
    170  C         27.2800  -15.9710  -32.1420 C.2   244  TYR244      0.2290
    171  O         27.7150  -15.9980  -30.9940 O.2   244  TYR244     -0.2864
    172  CB        27.5700  -13.4820  -32.1510 C.3   244  TYR244      0.0560
    173  CG        27.5860  -12.2260  -32.9930 C.ar  244  TYR244     -0.0198
    174  CD1       26.6850  -11.1930  -32.7480 C.ar  244  TYR244     -0.0009
    175  CD2       28.5010  -12.0760  -34.0440 C.ar  244  TYR244     -0.0009
    176  CE1       26.6850  -10.0320  -33.5240 C.ar  244  TYR244      0.0417
    177  CE2       28.5140  -10.9170  -34.8310 C.ar  244  TYR244      0.0417
    178  CZ        27.6040   -9.9010  -34.5640 C.ar  244  TYR244      0.1957
    179  OH        27.6120   -8.7510  -35.3210 O.3   244  TYR244     -0.2866
@<TRIPOS>BOND
     1   110   109    2
     2    92    93    1
     3   109   108    1
     4    93    94    1
     5    93    96    1
     6   107   108    1
     7    94    95    2
     8   108   111    1
     9    96    97    1
    10    96    98    1
    11   111   112    1
    12    99   100    1
    13   138   139    1
    14   138   141    1
    15   138   137    1
    16   139   140    2
    17   114   112    1
    18   112   113    1
    19   141   142    1
    20   100   101    1
    21   100   103    1
    22   104   106    1
    23   104   103    1
    24   101   102    2
    25   166   164   ar
    26   166   167   ar
    27   103   105    1
    28   164   162   ar
    29   115   116    1
    30   167   165   ar
    31   162   161    1
    32   162   163   ar
    33   161   158    1
    34   118   117    2
    35   165   163   ar
    36   158   157    1
    37   158   159    1
    38   116   117    1
    39   116   119    1
    40   126   125    2
    41   160   159    2
    42   125   124    1
    43   121   120    2
    44   146   145    2
    45   157   145   am
    46   143   144    1
    47   120   122   am
    48   120   119    1
    49   179   178    1
    50   145   144    1
    51   159   168   am
    52    52    53   ar
    53    52    50   ar
    54   177   178   ar
    55   177   175   ar
    56    53    51   ar
    57   144   147    1
    58   178   176   ar
    59    50    47   ar
    60    43    42    2
    61   124   123    1
    62   124   127    1
    63   175   173   ar
    64   168   169    1
    65    51    49   ar
    66   176   174   ar
    67   127   128    1
    68    47    49   ar
    69    47    45   ar
    70   147   148    1
    71    42    41    1
    72    41    44    1
    73    41    40    1
    74   169   172    1
    75   169   170    1
    76   173   174   ar
    77   173   172    1
    78    49    48   ar
    79   153   155   ar
    80   153   150   ar
    81    44    45    1
    82    45    46   ar
    83   155   156   ar
    84   148   150   ar
    85   148   149   ar
    86   150   152   ar
    87   170   171    2
    88   128   129   ar
    89   128   130   ar
    90    48    46   ar
    91   129   131   ar
    92   156   154   ar
    93   149   151   ar
    94   152   154   ar
    95   152   151   ar
    96   130   133   ar
    97   130   132   ar
    98   133   135   ar
    99   131   132   ar
   100   132   134   ar
   101    35    34    2
   102   135   136   ar
   103    22    20   ar
   104    22    23   ar
   105    20    17   ar
   106   134   136   ar
   107    34    33    1
   108    38    37    2
   109    23    21   ar
   110    33    36    1
   111    33    32    1
   112    36    37    1
   113    72    70    1
   114    37    39   am
   115    17    15   ar
   116    17    19   ar
   117    14    15    1
   118    14    11    1
   119    13    12    2
   120    21    19   ar
   121    71    70    1
   122    15    16   ar
   123    12    11    1
   124    70    69    2
   125    19    18   ar
   126     9     7   ar
   127     8     7   ar
   128    88    86   ar
   129    88    90   ar
   130    11    10    1
   131    86    85   ar
   132     7     6    1
   133    91    90    1
   134    90    89   ar
   135    69    68    1
   136    16    18   ar
   137    10     3   am
   138    85    84    1
   139    85    87   ar
   140    30    29   ar
   141    84    81    1
   142    89    87   ar
   143    68    67    1
   144     6     5    1
   145    27    26    2
   146    31    29   ar
   147    29    28    1
   148     3     4    2
   149     3     2    1
   150    81    80    1
   151    81    82    1
   152     5     2    1
   153    26    25    1
   154    28    25    1
   155    79    77    1
   156     2     1    1
   157    67    66    1
   158    66    63    1
   159    25    24    1
   160    82    83    2
   161    61    59    1
   162    78    77    1
   163    77    74    1
   164    60    59    1
   165    62    63    1
   166    62    56   am
   167    63    64    1
   168    59    58    1
   169    73    64   am
   170    73    74    1
   171    58    55    1
   172    64    65    2
   173    74    75    1
   174    55    56    1
   175    55    54    1
   176    56    57    2
   177    75    76    2
