@<TRIPOS>MOLECULE
tmp/1k2yA00.pdb
 110 105 0 0 0
SMALL
GASTEIGER

@<TRIPOS>ATOM
      1  N         48.6600   36.6110   10.3250 N.3    11  ARG11      -0.1245
      2  CA        48.0330   37.4820   11.3350 C.3    11  ARG11       0.1563
      3  C         46.7920   38.1570   10.7810 C.2    11  ARG11       0.2260
      4  O         46.3000   37.7970    9.7270 O.2    11  ARG11      -0.2867
      5  CB        49.0220   38.4840   11.8760 C.3    11  ARG11       0.0307
      6  CG        50.4470   37.9770   11.9920 C.3    11  ARG11       0.0489
      7  CD        51.3540   38.7950   12.8930 C.3    11  ARG11       0.2205
      8  NE        51.3170   40.2290   12.6150 N.pl3  11  ARG11      -0.0865
      9  CZ        52.0870   41.1270   13.2130 C.cat  11  ARG11       0.5346
     10  NH1       52.9790   40.7360   14.1080 N.pl3  11  ARG11       0.1354
     11  NH2       51.9810   42.4200   12.9030 N.pl3  11  ARG11       0.1354
     12  N         46.0240   41.1150    9.5170 N.3    13  TYR13      -0.1227
     13  CA        46.1090   41.9610    8.3370 C.3    13  TYR13       0.1736
     14  C         47.3320   41.7310    7.4570 C.2    13  TYR13       0.2595
     15  O         47.4150   42.3140    6.3570 O.2    13  TYR13      -0.2718
     16  CB        46.1000   43.4250    8.7950 C.3    13  TYR13       0.0548
     17  CG        45.0070   43.7340    9.7900 C.ar   13  TYR13      -0.0200
     18  CD1       43.6760   43.6460    9.4140 C.ar   13  TYR13      -0.0009
     19  CD2       45.3010   44.1410   11.0720 C.ar   13  TYR13      -0.0009
     20  CE1       42.6550   43.9380   10.3120 C.ar   13  TYR13       0.0417
     21  CE2       44.2680   44.4350   12.0010 C.ar   13  TYR13       0.0417
     22  CZ        42.9520   44.3330   11.5930 C.ar   13  TYR13       0.1957
     23  OH        41.8920   44.5980   12.4490 O.3    13  TYR13      -0.2866
     24  N         48.2660   40.8950    7.9180 N.am   14  ASP14      -0.1974
     25  CA        49.5180   40.6890    7.2030 C.3    14  ASP14       0.1709
     26  C         50.1460   39.3900    7.6590 C.2    14  ASP14       0.2293
     27  O         49.5400   38.6350    8.4470 O.2    14  ASP14      -0.2864
     28  CB        50.4820   41.8490    7.4310 C.3    14  ASP14       0.1436
     29  CG        50.8710   42.0330    8.8880 C.2    14  ASP14       0.3671
     30  OD1       50.5890   41.1310    9.7150 O.co2  14  ASP14      -0.2456
     31  OD2       51.4650   43.0520    9.3050 O.co2  14  ASP14      -0.2456
     32  N         59.2790   45.6570    8.9430 N.3   104  ALA104     -0.1231
     33  CA        58.8700   46.9630    9.4650 C.3   104  ALA104      0.1694
     34  C         59.8530   47.5320   10.4630 C.2   104  ALA104      0.2592
     35  O         60.9980   47.8180   10.1230 O.2   104  ALA104     -0.2718
     36  CB        57.4450   46.8470   10.0620 C.3   104  ALA104      0.0304
     37  N         59.4170   47.6830   11.7230 N.am  105  HIS105     -0.1976
     38  CA        60.2160   48.2980   12.7630 C.3   105  HIS105      0.1656
     39  C         60.8170   47.2610   13.7150 C.2   105  HIS105      0.2291
     40  O         61.4750   47.6160   14.6910 O.2   105  HIS105     -0.2864
     41  CB        59.3080   49.1910   13.6280 C.3   105  HIS105      0.0771
     42  CG        58.2090   48.4340   14.2810 C.ar  105  HIS105      0.0820
     43  ND1       57.2560   47.7450   13.5680 N.ar  105  HIS105     -0.2267
     44  CD2       57.9080   48.2490   15.5920 C.ar  105  HIS105      0.1154
     45  CE1       56.4200   47.1590   14.4070 C.ar  105  HIS105      0.1986
     46  NE2       56.7830   47.4710   15.6410 N.ar  105  HIS105     -0.2212
     47  N         53.2930   42.5880    3.5930 N.3   114  LYS114     -0.1245
     48  CA        52.1720   43.5190    3.5760 C.3   114  LYS114      0.1561
     49  C         51.5680   43.3960    2.2000 C.2   114  LYS114      0.2260
     50  O         52.2440   43.5420    1.1870 O.2   114  LYS114     -0.2867
     51  CB        52.6100   44.9470    3.9090 C.3   114  LYS114      0.0271
     52  CG        53.1260   45.0930    5.3670 C.3   114  LYS114      0.0035
     53  CD        53.4630   46.5370    5.7470 C.3   114  LYS114      0.0206
     54  CE        53.9590   46.6300    7.1660 C.3   114  LYS114      0.1093
     55  NZ        54.2350   47.9950    7.6800 N.3   114  LYS114     -0.1314
     56  N         60.3530   55.0820   10.7990 N.3   238  ASP238     -0.1239
     57  CA        60.3880   53.6770   11.1780 C.3   238  ASP238      0.1674
     58  C         61.1000   52.8860   10.0590 C.2   238  ASP238      0.2266
     59  O         61.4430   53.4410    8.9960 O.2   238  ASP238     -0.2867
     60  CB        59.0370   53.1380   11.6150 C.3   238  ASP238      0.1410
     61  CG        58.2010   52.6210   10.5000 C.2   238  ASP238      0.3668
     62  OD1       58.2920   53.1410    9.3600 O.co2 238  ASP238     -0.2456
     63  OD2       57.3730   51.6710   10.7060 O.co2 238  ASP238     -0.2456
     64  N         60.4370   50.6640    7.7280 N.3   240  ASP240     -0.1239
     65  CA        59.9260   50.5900    6.3670 C.3   240  ASP240      0.1674
     66  C         59.3820   51.9180    5.8390 C.2   240  ASP240      0.2266
     67  O         59.0050   52.0090    4.6470 O.2   240  ASP240     -0.2867
     68  CB        58.9460   49.4590    6.1790 C.3   240  ASP240      0.1410
     69  CG        57.6900   49.5860    7.0590 C.2   240  ASP240      0.3668
     70  OD1       56.6310   49.0890    6.6660 O.co2 240  ASP240     -0.2456
     71  OD2       57.7850   50.1130    8.1700 O.co2 240  ASP240     -0.2456
     72  N         56.6480   53.8250    6.7300 N.3   242  ASP242     -0.1225
     73  CA        55.2290   54.1880    6.7810 C.3   242  ASP242      0.1805
     74  C         54.8350   54.9750    8.0190 C.2   242  ASP242      0.2597
     75  O         53.6480   55.2580    8.1840 O.2   242  ASP242     -0.2718
     76  CB        54.2900   53.0200    6.5770 C.3   242  ASP242      0.1424
     77  CG        54.4850   51.9100    7.5840 C.2   242  ASP242      0.3668
     78  OD1       55.3480   52.0410    8.4900 O.co2 242  ASP242     -0.2456
     79  OD2       53.8870   50.8430    7.4220 O.co2 242  ASP242     -0.2456
     80  N         55.7920   55.2890    8.8710 N.am  243  ARG243     -0.1979
     81  CA        55.5780   56.1280   10.0550 C.3   243  ARG243      0.1597
     82  C         56.7450   57.0580   10.2360 C.2   243  ARG243      0.2287
     83  O         57.8830   56.6940    9.9040 O.2   243  ARG243     -0.2864
     84  CB        55.4690   55.2510   11.3350 C.3   243  ARG243      0.0334
     85  CG        54.3230   54.2950   11.3730 C.3   243  ARG243      0.0492
     86  CD        54.1640   53.6180   12.7020 C.3   243  ARG243      0.2205
     87  NE        55.1220   52.5560   12.9520 N.pl3 243  ARG243     -0.0865
     88  CZ        55.9660   52.4580   13.9760 C.cat 243  ARG243      0.5346
     89  NH1       56.0210   53.3600   14.9470 N.pl3 243  ARG243      0.1354
     90  NH2       56.7440   51.3990   14.0720 N.pl3 243  ARG243      0.1354
     91  N         45.4210   50.9760   12.5640 N.3   304  HIS304     -0.1241
     92  CA        45.5600   51.6280   11.2650 C.3   304  HIS304      0.1621
     93  C         44.7010   50.9650   10.1600 C.2   304  HIS304      0.2264
     94  O         44.2030   51.6450    9.2840 O.2   304  HIS304     -0.2867
     95  CB        47.0270   51.7660   10.8890 C.3   304  HIS304      0.0745
     96  CG        47.6970   50.4660   10.6090 C.ar  304  HIS304      0.0817
     97  ND1       47.5020   49.7620    9.4310 N.ar  304  HIS304     -0.2268
     98  CD2       48.5640   49.7370   11.3540 C.ar  304  HIS304      0.1154
     99  CE1       48.2290   48.6550    9.4710 C.ar  304  HIS304      0.1986
    100  NE2       48.8730   48.6080   10.6300 N.ar  304  HIS304     -0.2212
    101  N         50.5010   55.9820   12.0940 N.3   325  HIS325     -0.1241
    102  CA        50.1550   55.9850   10.6600 C.3   325  HIS325      0.1621
    103  C         49.2580   57.1940   10.3460 C.2   325  HIS325      0.2264
    104  O         48.2350   57.4350   11.0500 O.2   325  HIS325     -0.2867
    105  CB        49.4270   54.6800   10.3140 C.3   325  HIS325      0.0745
    106  CG        50.3040   53.4690   10.3720 C.ar  325  HIS325      0.0817
    107  ND1       50.5620   52.7610   11.5330 N.ar  325  HIS325     -0.2268
    108  CD2       50.9890   52.8430    9.3900 C.ar  325  HIS325      0.1154
    109  CE1       51.3950   51.7660   11.2640 C.ar  325  HIS325      0.1986
    110  NE2       51.6660   51.7900    9.9760 N.ar  325  HIS325     -0.2212
@<TRIPOS>BOND
     1    50    49    2
     2    49    48    1
     3    48    47    1
     4    48    51    1
     5    51    52    1
     6    67    66    2
     7    52    53    1
     8    53    54    1
     9    66    65    1
    10    68    65    1
    11    68    69    1
    12    15    14    2
    13    65    64    1
    14    76    73    1
    15    76    77    1
    16    70    69   ar
    17    72    73    1
    18    73    74    1
    19    69    71   ar
    20    54    55    1
    21    25    28    1
    22    25    26    1
    23    25    24    1
    24    79    77   ar
    25    28    29    1
    26    14    24   am
    27    14    13    1
    28    77    78   ar
    29    26    27    2
    30    74    75    2
    31    74    80   am
    32    13    16    1
    33    13    12    1
    34    16    17    1
    35    80    81    1
    36    29    31   ar
    37    29    30   ar
    38    32    33    1
    39    59    58    2
    40    94    93    2
    41    62    61   ar
    42   108   110   ar
    43   108   106   ar
    44    18    17   ar
    45    18    20   ar
    46    97    99   ar
    47    97    96   ar
    48    33    36    1
    49    33    34    1
    50    99   100   ar
    51     4     3    2
    52    17    19   ar
    53    83    82    2
    54   110   109   ar
    55    81    82    1
    56    81    84    1
    57    58    57    1
    58    35    34    2
    59    93    92    1
    60    20    22   ar
    61   105   106    1
    62   105   102    1
    63     1     2    1
    64   103   102    1
    65   103   104    2
    66   106   107   ar
    67    34    37   am
    68    61    63   ar
    69    61    60    1
    70    96    95    1
    71    96    98   ar
    72   100    98   ar
    73   102   101    1
    74     3     2    1
    75    56    57    1
    76    95    92    1
    77    19    21   ar
    78    57    60    1
    79   109   107   ar
    80    92    91    1
    81    84    85    1
    82     2     5    1
    83    85    86    1
    84    22    21   ar
    85    22    23    1
    86    37    38    1
    87     5     6    1
    88     6     7    1
    89     8     7    1
    90     8     9    2
    91    86    87    1
    92    38    41    1
    93    38    39    1
    94    11     9    1
    95    87    88    2
    96     9    10    1
    97    43    42   ar
    98    43    45   ar
    99    41    42    1
   100    39    40    2
   101    88    90    1
   102    88    89    1
   103    42    44   ar
   104    45    46   ar
   105    44    46   ar
