@<TRIPOS>MOLECULE
tmp/1k3aA00.pdb
 205 198 0 0 0
SMALL
GASTEIGER

@<TRIPOS>ATOM
      1  N         26.4590   16.1540   36.9200 N.3   101  LYS101     -0.1245
      2  CA        27.7740   16.3130   36.3090 C.3   101  LYS101      0.1561
      3  C         28.4460   14.9520   36.1140 C.2   101  LYS101      0.2260
      4  O         28.9330   14.6400   35.0270 O.2   101  LYS101     -0.2867
      5  CB        28.6840   17.2070   37.1570 C.3   101  LYS101      0.0271
      6  CG        30.0570   17.3580   36.5040 C.3   101  LYS101      0.0035
      7  CD        31.0500   18.1510   37.3240 C.3   101  LYS101      0.0206
      8  CE        32.3950   18.1850   36.5910 C.3   101  LYS101      0.1093
      9  NZ        33.4550   18.8940   37.3550 N.3   101  LYS101     -0.1314
     10  N         23.2670   28.8930   42.8950 N.3   140  ASP140     -0.1239
     11  CA        24.3460   27.9510   42.6320 C.3   140  ASP140      0.1674
     12  C         23.8890   26.8400   41.6970 C.2   140  ASP140      0.2266
     13  O         24.2100   25.6670   41.8930 O.2   140  ASP140     -0.2867
     14  CB        24.8690   27.3820   43.9640 C.3   140  ASP140      0.1410
     15  CG        26.2050   26.6430   43.8170 C.2   140  ASP140      0.3668
     16  OD1       26.8750   26.7960   42.7750 O.co2 140  ASP140     -0.2456
     17  OD2       26.5940   25.9190   44.7570 O.co2 140  ASP140     -0.2456
     18  N         26.5660   19.9880   38.8160 N.3   144  ARG144     -0.1231
     19  CA        26.9620   19.3240   40.0550 C.3   144  ARG144      0.1694
     20  C         25.8830   19.4130   41.1350 C.2   144  ARG144      0.2592
     21  O         25.8910   18.6290   42.0860 O.2   144  ARG144     -0.2718
     22  CB        28.2630   19.9290   40.5990 C.3   144  ARG144      0.0321
     23  CG        28.1380   21.4070   40.9640 C.3   144  ARG144      0.0489
     24  CD        29.3610   21.9430   41.6950 C.3   144  ARG144      0.2205
     25  NE        29.1970   23.3820   41.8990 N.pl3 144  ARG144     -0.0865
     26  CZ        29.3960   24.2900   40.9510 C.cat 144  ARG144      0.5346
     27  NH1       29.7880   23.9040   39.7410 N.pl3 144  ARG144      0.1354
     28  NH2       29.1590   25.5760   41.1980 N.pl3 144  ARG144      0.1354
     29  N         24.9540   20.3560   40.9950 N.am  145  ASN145     -0.1974
     30  CA        23.9170   20.5190   42.0050 C.3   145  ASN145      0.1688
     31  C         22.5440   19.9680   41.6440 C.2   145  ASN145      0.2292
     32  O         21.5800   20.1380   42.3960 O.2   145  ASN145     -0.2864
     33  CB        23.8360   21.9940   42.4330 C.3   145  ASN145      0.1181
     34  CG        25.0510   22.4160   43.2490 C.2   145  ASN145      0.2629
     35  OD1       25.5490   21.6400   44.0540 O.2   145  ASN145     -0.2716
     36  ND2       25.5280   23.6440   43.0490 N.am  145  ASN145     -0.0877
     37  N         20.8030   20.7150   45.5350 N.3   158  ASP158     -0.1239
     38  CA        21.6550   21.3000   46.5710 C.3   158  ASP158      0.1674
     39  C         21.1890   22.7440   46.7290 C.2   158  ASP158      0.2266
     40  O         21.0300   23.4440   45.7370 O.2   158  ASP158     -0.2867
     41  CB        23.1320   21.2730   46.1500 C.3   158  ASP158      0.1410
     42  CG        24.0770   21.6140   47.3020 C.2   158  ASP158      0.3668
     43  OD1       24.4970   20.6800   48.0270 O.co2 158  ASP158     -0.2456
     44  OD2       24.3910   22.8110   47.4980 O.co2 158  ASP158     -0.2456
     45  N         23.3600   27.7420   48.7790 N.3   161  MET161     -0.1245
     46  CA        23.4040   29.1940   48.6050 C.3   161  MET161      0.1570
     47  C         22.0440   29.8390   48.3510 C.2   161  MET161      0.2261
     48  O         21.9610   31.0470   48.1200 O.2   161  MET161     -0.2867
     49  CB        24.3620   29.5440   47.4570 C.3   161  MET161      0.0387
     50  CG        25.8230   29.2240   47.7500 C.3   161  MET161      0.0595
     51  SD        26.9350   29.5160   46.3520 S.3   161  MET161     -0.1393
     52  CE        26.5340   31.2580   45.9140 C.3   161  MET161      0.0692
     53  N         25.3710   39.9170   47.8270 N.3   170  LYS170     -0.1231
     54  CA        26.4090   39.3020   48.6410 C.3   170  LYS170      0.1693
     55  C         27.3640   40.3760   49.1440 C.2   170  LYS170      0.2593
     56  O         27.8720   41.1810   48.3640 O.2   170  LYS170     -0.2718
     57  CB        27.1810   38.2680   47.8180 C.3   170  LYS170      0.0285
     58  CG        28.3470   37.6320   48.5560 C.3   170  LYS170      0.0035
     59  CD        27.8780   36.8750   49.7860 C.3   170  LYS170      0.0206
     60  CE        29.0660   36.3820   50.6010 C.3   170  LYS170      0.1093
     61  NZ        28.6340   35.6410   51.8120 N.3   170  LYS170     -0.1314
     62  N         27.6030   40.3880   50.4500 N.am  171  GLY171     -0.1942
     63  CA        28.5060   41.3700   51.0210 C.3   171  GLY171      0.2014
     64  C         29.8040   40.7560   51.5170 C.2   171  GLY171      0.2639
     65  O         29.8130   39.6420   52.0470 O.2   171  GLY171     -0.2714
     66  N         30.9070   41.4770   51.3350 N.am  172  GLY172     -0.1939
     67  CA        32.1960   40.9860   51.7930 C.3   172  GLY172      0.2014
     68  C         32.8510   39.9500   50.8980 C.2   172  GLY172      0.2639
     69  O         32.6880   39.9670   49.6750 O.2   172  GLY172     -0.2714
     70  N         33.5990   39.0430   51.5180 N.am  173  LYS173     -0.1963
     71  CA        34.2960   37.9870   50.7920 C.3   173  LYS173      0.1728
     72  C         33.4750   36.7040   50.7950 C.2   173  LYS173      0.2617
     73  O         32.5990   36.5200   51.6420 O.2   173  LYS173     -0.2715
     74  CB        35.6510   37.7000   51.4430 C.3   173  LYS173      0.0311
     75  CG        36.5540   38.9090   51.5900 C.3   173  LYS173      0.0038
     76  CD        37.8650   38.5220   52.2580 C.3   173  LYS173      0.0206
     77  CE        38.7150   39.7440   52.5650 C.3   173  LYS173      0.1093
     78  NZ        39.9830   39.3700   53.2540 N.3   173  LYS173     -0.1314
     79  N         33.7670   35.8210   49.8460 N.am  174  GLY174     -0.1940
     80  CA        33.0580   34.5580   49.7690 C.3   174  GLY174      0.2014
     81  C         33.5610   33.6700   48.6470 C.2   174  GLY174      0.2639
     82  O         34.1320   34.1500   47.6660 O.2   174  GLY174     -0.2714
     83  N         33.3730   32.3650   48.8000 N.am  175  LEU175     -0.1963
     84  CA        33.7840   31.4160   47.7720 C.3   175  LEU175      0.1728
     85  C         32.5410   31.2290   46.9060 C.2   175  LEU175      0.2616
     86  O         31.5760   30.5790   47.3180 O.2   175  LEU175     -0.2715
     87  CB        34.2090   30.0890   48.4050 C.3   175  LEU175      0.0311
     88  CG        35.3810   30.1510   49.3940 C.3   175  LEU175      0.0022
     89  CD1       35.7190   28.7380   49.8640 C.3   175  LEU175      0.0001
     90  CD2       36.5930   30.7820   48.7300 C.3   175  LEU175      0.0001
     91  N         32.5680   31.8100   45.7110 N.am  176  LEU176     -0.1964
     92  CA        31.4270   31.7440   44.8070 C.3   176  LEU176      0.1713
     93  C         31.7380   31.0410   43.5000 C.2   176  LEU176      0.2458
     94  O         32.8800   31.0430   43.0410 O.2   176  LEU176     -0.2730
     95  CB        30.9160   33.1600   44.5240 C.3   176  LEU176      0.0310
     96  CG        30.4400   33.9150   45.7660 C.3   176  LEU176      0.0022
     97  CD1       30.0350   35.3380   45.3990 C.3   176  LEU176      0.0001
     98  CD2       29.2750   33.1720   46.3830 C.3   176  LEU176      0.0001
     99  N         30.7110   30.4300   42.8830 N.am  177  PRO177     -0.2716
    100  CA        30.8070   29.6970   41.6170 C.3   177  PRO177      0.1536
    101  C         30.9610   30.6380   40.4280 C.2   177  PRO177      0.2598
    102  O         30.0610   30.7590   39.5920 O.2   177  PRO177     -0.2715
    103  CB        29.5010   28.9130   41.5830 C.3   177  PRO177      0.0310
    104  CG        28.5390   29.8750   42.2280 C.3   177  PRO177      0.0237
    105  CD        29.3320   30.3780   43.4120 C.3   177  PRO177      0.0939
    106  N         32.1190   31.2940   40.3660 N.am  178  VAL178     -0.1964
    107  CA        32.4400   32.2520   39.3140 C.3   178  VAL178      0.1727
    108  C         32.1110   31.8630   37.8730 C.2   178  VAL178      0.2616
    109  O         31.5860   32.6850   37.1220 O.2   178  VAL178     -0.2715
    110  CB        33.9410   32.6460   39.3760 C.3   178  VAL178      0.0290
    111  CG1       34.3660   33.3020   38.0770 C.3   178  VAL178      0.0023
    112  CG2       34.1740   33.5970   40.5410 C.3   178  VAL178      0.0023
    113  N         32.4170   30.6280   37.4820 N.am  179  ARG179     -0.1963
    114  CA        32.1650   30.1850   36.1100 C.3   179  ARG179      0.1729
    115  C         30.7010   29.9330   35.7660 C.2   179  ARG179      0.2616
    116  O         30.3830   29.5990   34.6320 O.2   179  ARG179     -0.2715
    117  CB        32.9930   28.9330   35.7980 C.3   179  ARG179      0.0348
    118  CG        34.5010   29.1960   35.7980 C.3   179  ARG179      0.0492
    119  CD        35.3290   27.9160   35.7160 C.3   179  ARG179      0.2205
    120  NE        36.7290   28.1770   36.0640 N.pl3 179  ARG179     -0.0865
    121  CZ        37.7130   28.3530   35.1870 C.cat 179  ARG179      0.5346
    122  NH1       37.4710   28.2880   33.8880 N.pl3 179  ARG179      0.1354
    123  NH2       38.9420   28.6180   35.6120 N.pl3 179  ARG179      0.1354
    124  N         29.8160   30.1010   36.7420 N.am  180  TRP180     -0.1960
    125  CA        28.3790   29.8920   36.5350 C.3   180  TRP180      0.1771
    126  C         27.6020   31.1910   36.8050 C.2   180  TRP180      0.2619
    127  O         26.3840   31.2420   36.6360 O.2   180  TRP180     -0.2715
    128  CB        27.8700   28.7810   37.4750 C.3   180  TRP180      0.0590
    129  CG        28.1820   27.3640   37.0150 C.ar  180  TRP180      0.0006
    130  CD1       27.3590   26.5360   36.3030 C.ar  180  TRP180      0.0946
    131  CD2       29.4230   26.6540   37.1700 C.ar  180  TRP180      0.0152
    132  NE1       28.0070   25.3640   35.9990 N.ar  180  TRP180     -0.2442
    133  CE2       29.2750   25.4090   36.5160 C.ar  180  TRP180      0.0810
    134  CE3       30.6450   26.9520   37.7890 C.ar  180  TRP180      0.0012
    135  CZ2       30.3060   24.4600   36.4650 C.ar  180  TRP180      0.0191
    136  CZ3       31.6710   26.0030   37.7350 C.ar  180  TRP180      0.0001
    137  CH2       31.4920   24.7750   37.0780 C.ar  180  TRP180      0.0015
    138  N         28.3130   32.2360   37.2200 N.am  181  MET181     -0.1977
    139  CA        27.6960   33.5180   37.5590 C.3   181  MET181      0.1605
    140  C         27.5030   34.5170   36.4230 C.2   181  MET181      0.2287
    141  O         28.3420   34.6490   35.5420 O.2   181  MET181     -0.2864
    142  CB        28.4920   34.1770   38.6850 C.3   181  MET181      0.0413
    143  CG        28.2450   33.5560   40.0570 C.3   181  MET181      0.0598
    144  SD        29.5630   33.9460   41.2270 S.3   181  MET181     -0.1393
    145  CE        29.2320   35.6800   41.5360 C.3   181  MET181      0.0692
    146  N         26.2900   39.6570   38.5020 N.3   185  SER185     -0.1202
    147  CA        26.6110   39.0140   39.7760 C.3   185  SER185      0.2020
    148  C         28.1120   39.0960   40.0150 C.2   185  SER185      0.2619
    149  O         28.5600   39.3630   41.1240 O.2   185  SER185     -0.2717
    150  CB        26.1870   37.5370   39.7730 C.3   185  SER185      0.2103
    151  OG        24.7790   37.4000   39.7380 O.3   185  SER185     -0.2182
    152  N         28.8870   38.8570   38.9650 N.am  186  LEU186     -0.1965
    153  CA        30.3330   38.9180   39.0820 C.3   186  LEU186      0.1728
    154  C         30.7640   40.3430   39.4150 C.2   186  LEU186      0.2616
    155  O         31.7220   40.5530   40.1580 O.2   186  LEU186     -0.2715
    156  CB        30.9940   38.4830   37.7730 C.3   186  LEU186      0.0311
    157  CG        30.9360   37.0120   37.3530 C.3   186  LEU186      0.0022
    158  CD1       31.4530   36.8820   35.9370 C.3   186  LEU186      0.0001
    159  CD2       31.7600   36.1550   38.3090 C.3   186  LEU186      0.0001
    160  N         30.0460   41.3210   38.8710 N.am  187  LYS187     -0.1963
    161  CA        30.3960   42.7180   39.0920 C.3   187  LYS187      0.1728
    162  C         30.0670   43.2820   40.4740 C.2   187  LYS187      0.2616
    163  O         30.9100   43.9300   41.0880 O.2   187  LYS187     -0.2715
    164  CB        29.7590   43.5990   38.0120 C.3   187  LYS187      0.0311
    165  CG        30.5020   44.9170   37.8190 C.3   187  LYS187      0.0038
    166  CD        29.8700   45.8110   36.7580 C.3   187  LYS187      0.0206
    167  CE        28.6240   46.5010   37.2850 C.3   187  LYS187      0.1093
    168  NZ        28.1230   47.5380   36.3350 N.3   187  LYS187     -0.1314
    169  N         28.8580   43.0500   40.9740 N.am  188  ASP188     -0.1957
    170  CA        28.5020   43.5810   42.2870 C.3   188  ASP188      0.1840
    171  C         27.7680   42.6290   43.2270 C.2   188  ASP188      0.2622
    172  O         27.0360   43.0640   44.1200 O.2   188  ASP188     -0.2715
    173  CB        27.7030   44.8790   42.1260 C.3   188  ASP188      0.1450
    174  CG        26.9240   44.9220   40.8350 C.2   188  ASP188      0.3671
    175  OD1       26.0050   44.0910   40.6660 O.co2 188  ASP188     -0.2456
    176  OD2       27.2400   45.7830   39.9840 O.co2 188  ASP188     -0.2456
    177  N         27.9680   41.3310   43.0200 N.am  189  GLY189     -0.1954
    178  CA        27.3530   40.3310   43.8780 C.3   189  GLY189      0.1869
    179  C         25.8430   40.3360   44.0270 C.2   189  GLY189      0.2309
    180  O         25.3270   39.9080   45.0590 O.2   189  GLY189     -0.2863
    181  N         34.5450   21.4400   31.4600 N.3   213  GLN213     -0.1245
    182  CA        34.6820   22.5190   32.4320 C.3   213  GLN213      0.1566
    183  C         34.4030   23.8390   31.7170 C.2   213  GLN213      0.2260
    184  O         34.9950   24.1170   30.6680 O.2   213  GLN213     -0.2867
    185  CB        36.0980   22.5410   33.0090 C.3   213  GLN213      0.0367
    186  CG        36.3800   23.7360   33.9070 C.3   213  GLN213      0.0905
    187  CD        35.6540   23.6590   35.2370 C.2   213  GLN213      0.2608
    188  OE1       35.8030   24.5370   36.0890 O.2   213  GLN213     -0.2717
    189  NE2       34.8680   22.6020   35.4270 N.am  213  GLN213     -0.0878
    190  N         40.6300   31.7300   36.6890 N.3   220  ASN220     -0.1240
    191  CA        39.4550   32.3700   37.2620 C.3   220  ASN220      0.1653
    192  C         39.4390   33.8550   36.9100 C.2   220  ASN220      0.2266
    193  O         38.3840   34.4310   36.6410 O.2   220  ASN220     -0.2867
    194  CB        39.4370   32.1810   38.7810 C.3   220  ASN220      0.1155
    195  CG        39.3870   30.7180   39.1780 C.2   220  ASN220      0.2627
    196  OD1       38.7210   29.9170   38.5240 O.2   220  ASN220     -0.2716
    197  ND2       40.0800   30.3640   40.2590 N.am  220  ASN220     -0.0877
    198  N         36.5040   36.0060   34.8690 N.3   224  LEU224     -0.1245
    199  CA        35.8660   37.2060   35.3880 C.3   224  LEU224      0.1561
    200  C         35.8660   38.3110   34.3320 C.2   224  LEU224      0.2260
    201  O         34.8440   38.9600   34.0960 O.2   224  LEU224     -0.2867
    202  CB        36.6110   37.6890   36.6350 C.3   224  LEU224      0.0270
    203  CG        35.8050   37.8870   37.9230 C.3   224  LEU224      0.0019
    204  CD1       34.7190   38.9270   37.6920 C.3   224  LEU224      0.0001
    205  CD2       35.1970   36.5600   38.3600 C.3   224  LEU224      0.0001
@<TRIPOS>BOND
     1   184   183    2
     2   181   182    1
     3   183   182    1
     4   182   185    1
     5   185   186    1
     6   122   121    1
     7   186   187    1
     8   201   200    2
     9   200   199    1
    10   116   115    2
    11   198   199    1
    12     4     3    2
    13   121   123    1
    14   121   120    2
    15   187   189   am
    16   187   188    2
    17   199   202    1
    18   141   140    2
    19   119   118    1
    20   119   120    1
    21   115   114    1
    22   115   124   am
    23   117   118    1
    24   117   114    1
    25   158   157    1
    26   132   130   ar
    27   132   133   ar
    28   114   113    1
    29     3     2    1
    30   130   129   ar
    31     2     1    1
    32     2     5    1
    33   168   167    1
    34   140   139    1
    35   135   133   ar
    36   135   137   ar
    37     6     5    1
    38     6     7    1
    39   133   131   ar
    40   125   124    1
    41   125   126    1
    42   125   128    1
    43     8     7    1
    44     8     9    1
    45   202   203    1
    46   127   126    2
    47   193   192    2
    48   190   191    1
    49   166   167    1
    50   166   165    1
    51   126   138   am
    52   192   191    1
    53   129   131   ar
    54   129   128    1
    55   137   136   ar
    56   109   108    2
    57   131   134   ar
    58   138   139    1
    59   191   194    1
    60   157   156    1
    61   157   159    1
    62   113   108   am
    63   139   142    1
    64   204   203    1
    65   136   134   ar
    66   156   153    1
    67   165   164    1
    68   108   107    1
    69   203   205    1
    70   164   161    1
    71   111   110    1
    72   146   147    1
    73   196   195    2
    74   142   143    1
    75   194   195    1
    76    18    19    1
    77   160   161    1
    78   160   154   am
    79   152   153    1
    80   152   148   am
    81   153   154    1
    82   161   162    1
    83   195   197   am
    84   107   110    1
    85   107   106    1
    86   110   112    1
    87   154   155    2
    88   102   101    2
    89   151   150    1
    90    27    26    1
    91   150   147    1
    92   147   148    1
    93   176   174   ar
    94   148   149    2
    95    19    22    1
    96    19    20    1
    97   143   144    1
    98   106   101   am
    99   101   100    1
   100   162   169   am
   101   162   163    2
   102    22    23    1
   103   175   174   ar
   104   174   173    1
   105    26    28    1
   106    26    25    2
   107    23    24    1
   108   169   170    1
   109    29    20   am
   110    29    30    1
   111    20    21    2
   112   144   145    1
   113   103   100    1
   114   103   104    1
   115   100    99    1
   116    31    30    1
   117    31    32    2
   118    24    25    1
   119    12    13    2
   120    12    11    1
   121    30    33    1
   122   173   170    1
   123   104   105    1
   124   170   171    1
   125    33    34    1
   126    11    10    1
   127    11    14    1
   128    16    15   ar
   129    99   105    1
   130    99    93   am
   131   177   171   am
   132   177   178    1
   133    94    93    2
   134    36    34   am
   135   171   172    2
   136    34    35    2
   137    93    92    1
   138    15    14    1
   139    15    17   ar
   140   178   179    1
   141   179   180    2
   142    95    92    1
   143    95    96    1
   144    92    91    1
   145    97    96    1
   146    37    38    1
   147    91    85   am
   148    40    39    2
   149    96    98    1
   150    52    51    1
   151    41    38    1
   152    41    42    1
   153    51    50    1
   154    38    39    1
   155    85    86    2
   156    85    84    1
   157    42    44   ar
   158    42    43   ar
   159    49    50    1
   160    49    46    1
   161    82    81    2
   162    84    87    1
   163    84    83    1
   164    57    58    1
   165    57    54    1
   166    53    54    1
   167    48    47    2
   168    47    46    1
   169    56    55    2
   170    87    88    1
   171    58    59    1
   172    46    45    1
   173    54    55    1
   174    81    83   am
   175    81    80    1
   176    90    88    1
   177    55    62   am
   178    88    89    1
   179    69    68    2
   180    80    79    1
   181    59    60    1
   182    79    72   am
   183    62    63    1
   184    60    61    1
   185    71    72    1
   186    71    74    1
   187    71    70    1
   188    72    73    2
   189    68    70   am
   190    68    67    1
   191    63    64    1
   192    66    64   am
   193    66    67    1
   194    74    75    1
   195    64    65    2
   196    75    76    1
   197    76    77    1
   198    77    78    1
