@<TRIPOS>MOLECULE
tmp/1k3aA01.pdb
 170 159 0 0 0
SMALL
GASTEIGER

@<TRIPOS>ATOM
      1  N         27.5720    6.4080   50.3810 N.3    18  LEU18      -0.1231
      2  CA        27.3980    6.8850   49.0160 C.3    18  LEU18       0.1693
      3  C         28.5860    7.7600   48.6560 C.2    18  LEU18       0.2593
      4  O         29.0710    7.7330   47.5250 O.2    18  LEU18      -0.2718
      5  CB        26.1040    7.6930   48.8860 C.3    18  LEU18       0.0284
      6  CG        24.7990    6.8960   48.8960 C.3    18  LEU18       0.0019
      7  CD1       23.6110    7.8400   48.8280 C.3    18  LEU18       0.0001
      8  CD2       24.7900    5.9440   47.7130 C.3    18  LEU18       0.0001
      9  N         29.0520    8.5340   49.6310 N.am   19  GLY19      -0.1942
     10  CA        30.1870    9.4100   49.4020 C.3    19  GLY19       0.2014
     11  C         30.2620   10.5400   50.4130 C.2    19  GLY19       0.2639
     12  O         29.2770   10.8500   51.0950 O.2    19  GLY19      -0.2714
     13  N         31.4320   11.1600   50.5090 N.am   20  GLN20      -0.1963
     14  CA        31.6430   12.2600   51.4440 C.3    20  GLN20       0.1733
     15  C         30.9370   13.5240   50.9560 C.2    20  GLN20       0.2617
     16  O         31.0200   13.8680   49.7750 O.2    20  GLN20      -0.2715
     17  CB        33.1410   12.5400   51.5990 C.3    20  GLN20       0.0408
     18  CG        33.4780   13.4790   52.7490 C.3    20  GLN20       0.0908
     19  CD        33.3090   12.8230   54.1120 C.2    20  GLN20       0.2608
     20  OE1       33.2050   13.5030   55.1340 O.2    20  GLN20      -0.2717
     21  NE2       33.2930   11.4980   54.1320 N.am   20  GLN20      -0.0878
     22  N         30.2450   14.2100   51.8660 N.am   21  GLY21      -0.1940
     23  CA        29.5410   15.4310   51.5040 C.3    21  GLY21       0.2014
     24  C         30.1840   16.7000   52.0480 C.2    21  GLY21       0.2640
     25  O         31.3220   16.6810   52.5150 O.2    21  GLY21      -0.2714
     26  N         29.4540   17.8130   51.9870 N.am   22  SER22      -0.1935
     27  CA        29.9580   19.0930   52.4840 C.3    22  SER22       0.2055
     28  C         30.2680   19.0800   53.9710 C.2    22  SER22       0.2643
     29  O         31.3350   19.5350   54.3840 O.2    22  SER22      -0.2714
     30  CB        28.9530   20.2110   52.2170 C.3    22  SER22       0.2130
     31  OG        28.9650   20.5880   50.8560 O.3    22  SER22      -0.2179
     32  N         29.3380   18.5620   54.7710 N.am   23  PHE23      -0.1973
     33  CA        29.5190   18.5310   56.2220 C.3    23  PHE23       0.1639
     34  C         29.7670   17.1410   56.8130 C.2    23  PHE23       0.2290
     35  O         30.0030   17.0050   58.0170 O.2    23  PHE23      -0.2864
     36  CB        28.3000   19.1560   56.9210 C.3    23  PHE23       0.0560
     37  CG        27.8060   20.4260   56.2810 C.ar   23  PHE23      -0.0200
     38  CD1       26.9830   20.3790   55.1590 C.ar   23  PHE23      -0.0042
     39  CD2       28.1710   21.6680   56.7910 C.ar   23  PHE23      -0.0042
     40  CE1       26.5300   21.5540   54.5540 C.ar   23  PHE23      -0.0003
     41  CE2       27.7240   22.8450   56.1940 C.ar   23  PHE23      -0.0003
     42  CZ        26.9030   22.7870   55.0740 C.ar   23  PHE23      -0.0000
     43  N         27.6850   10.8590   53.4350 N.3    26  VAL26      -0.1245
     44  CA        26.3200   10.6470   52.9640 C.3    26  VAL26       0.1561
     45  C         26.1320    9.1390   52.7730 C.2    26  VAL26       0.2260
     46  O         26.9610    8.4830   52.1400 O.2    26  VAL26      -0.2867
     47  CB        26.0660   11.3360   51.6110 C.3    26  VAL26       0.0252
     48  CG1       24.6050   11.1560   51.2080 C.3    26  VAL26       0.0019
     49  CG2       26.4250   12.8080   51.6970 C.3    26  VAL26       0.0019
     50  N         18.4010    8.8850   51.1290 N.3    44  ALA44      -0.1245
     51  CA        19.7880    9.2930   51.1310 C.3    44  ALA44       0.1562
     52  C         19.9130    9.8840   52.5370 C.2    44  ALA44       0.2260
     53  O         19.0260   10.6070   52.9920 O.2    44  ALA44      -0.2867
     54  CB        20.0350   10.3550   50.0690 C.3    44  ALA44       0.0290
     55  N         22.1930   12.2470   54.8290 N.3    46  LYS46      -0.1245
     56  CA        23.2920   13.1950   54.9520 C.3    46  LYS46       0.1561
     57  C         23.5630   13.4270   56.4330 C.2    46  LYS46       0.2260
     58  O         22.6460   13.7220   57.2010 O.2    46  LYS46      -0.2867
     59  CB        22.9250   14.5140   54.2800 C.3    46  LYS46       0.0271
     60  CG        22.3800   14.3470   52.8690 C.3    46  LYS46       0.0035
     61  CD        22.3590   15.6690   52.1300 C.3    46  LYS46       0.0206
     62  CE        23.7690   16.2150   51.9720 C.3    46  LYS46       0.1093
     63  NZ        23.7970   17.5200   51.2490 N.3    46  LYS46      -0.1314
     64  N         20.1740   24.6360   55.5770 N.3    63  GLU63      -0.1245
     65  CA        19.8400   24.1070   54.2570 C.3    63  GLU63       0.1567
     66  C         18.6030   23.2260   54.3680 C.2    63  GLU63       0.2260
     67  O         17.7540   23.2210   53.4790 O.2    63  GLU63      -0.2867
     68  CB        20.9890   23.2860   53.6520 C.3    63  GLU63       0.0388
     69  CG        20.9290   23.2670   52.1180 C.3    63  GLU63       0.1160
     70  CD        21.8950   22.2900   51.4610 C.2    63  GLU63       0.3649
     71  OE1       23.0460   22.1720   51.9410 O.co2  63  GLU63      -0.2457
     72  OE2       21.4990   21.6570   50.4480 O.co2  63  GLU63      -0.2457
     73  N         14.6700   17.8870   44.6210 N.3    76  VAL76      -0.1245
     74  CA        14.9320   16.7690   45.5300 C.3    76  VAL76       0.1561
     75  C         14.2120   17.0300   46.8470 C.2    76  VAL76       0.2260
     76  O         14.3770   18.0760   47.4730 O.2    76  VAL76      -0.2867
     77  CB        16.4340   16.5870   45.7650 C.3    76  VAL76       0.0252
     78  CG1       16.6780   15.4040   46.6850 C.3    76  VAL76       0.0019
     79  CG2       17.1300   16.3520   44.4230 C.3    76  VAL76       0.0019
     80  N         16.6940   12.4780   52.8420 N.3    92  MET92      -0.1230
     81  CA        16.1260   12.9950   51.6170 C.3    92  MET92       0.1702
     82  C         15.8260   11.9250   50.5830 C.2    92  MET92       0.2592
     83  O         16.2930   10.7880   50.6780 O.2    92  MET92      -0.2718
     84  CB        17.0960   14.0010   50.9980 C.3    92  MET92       0.0401
     85  CG        17.3010   15.2620   51.8200 C.3    92  MET92       0.0596
     86  SD        18.6370   16.2460   51.1390 S.3    92  MET92      -0.1393
     87  CE        18.1020   16.4280   49.4400 C.3    92  MET92       0.0692
     88  N         15.0410   12.3290   49.5930 N.am   93  GLU93      -0.1966
     89  CA        14.6580   11.4850   48.4840 C.3    93  GLU93       0.1733
     90  C         15.9370   10.8980   47.8890 C.2    93  GLU93       0.2616
     91  O         16.9160   11.6130   47.6830 O.2    93  GLU93      -0.2715
     92  CB        13.9330   12.3400   47.4430 C.3    93  GLU93       0.0429
     93  CG        13.5000   11.6050   46.2000 C.3    93  GLU93       0.1163
     94  CD        12.8790   12.5290   45.1700 C.2    93  GLU93       0.3649
     95  OE1       12.5900   12.0540   44.0600 O.co2  93  GLU93      -0.2457
     96  OE2       12.6750   13.7300   45.4610 O.co2  93  GLU93      -0.2457
     97  N         15.9310    9.5960   47.6200 N.am   94  LEU94      -0.1963
     98  CA        17.1040    8.9410   47.0470 C.3    94  LEU94       0.1728
     99  C         17.1340    9.1550   45.5350 C.2    94  LEU94       0.2616
    100  O         16.1460    8.9280   44.8510 O.2    94  LEU94      -0.2715
    101  CB        17.0790    7.4370   47.3600 C.3    94  LEU94       0.0311
    102  CG        18.2630    6.5940   46.8630 C.3    94  LEU94       0.0022
    103  CD1       19.5440    7.0800   47.5250 C.3    94  LEU94       0.0001
    104  CD2       18.0310    5.1130   47.1940 C.3    94  LEU94       0.0001
    105  N         18.2770    9.5980   45.0260 N.am   95  MET95      -0.1963
    106  CA        18.4730    9.8370   43.6000 C.3    95  MET95       0.1736
    107  C         19.5780    8.8540   43.2160 C.2    95  MET95       0.2617
    108  O         20.7670    9.1810   43.2930 O.2    95  MET95      -0.2715
    109  CB        18.9350   11.2850   43.3720 C.3    95  MET95       0.0427
    110  CG        17.9430   12.3390   43.8790 C.3    95  MET95       0.0599
    111  SD        16.3210   12.2080   43.0920 S.3    95  MET95      -0.1393
    112  CE        16.7040   12.7830   41.4280 C.3    95  MET95       0.0692
    113  N         19.1810    7.6490   42.8050 N.am   96  THR96      -0.1951
    114  CA        20.1530    6.6000   42.4930 C.3    96  THR96       0.1897
    115  C         21.2570    6.9000   41.4800 C.2    96  THR96       0.2313
    116  O         22.3540    6.3630   41.6060 O.2    96  THR96      -0.2863
    117  CB        19.4440    5.2680   42.0980 C.3    96  THR96       0.1794
    118  OG1       18.5810    5.4780   40.9740 O.3    96  THR96      -0.2208
    119  CG2       18.6140    4.7440   43.2760 C.3    96  THR96       0.0378
    120  N         22.9920    9.6390   41.1230 N.3    98  GLY98      -0.1210
    121  CA        23.9370   10.6600   41.5500 C.3    98  GLY98       0.1956
    122  C         23.7580   12.0380   40.9220 C.2    98  GLY98       0.2611
    123  O         22.7290   12.3230   40.3090 O.2    98  GLY98      -0.2717
    124  N         24.7690   12.8920   41.0620 N.am   99  ASP99      -0.1973
    125  CA        24.6840   14.2460   40.5100 C.3    99  ASP99       0.1709
    126  C         24.7680   14.2350   38.9840 C.2    99  ASP99       0.2293
    127  O         25.3490   13.3230   38.3780 O.2    99  ASP99      -0.2864
    128  CB        25.7810   15.1420   41.0950 C.3    99  ASP99       0.1436
    129  CG        27.1640   14.7770   40.5960 C.2    99  ASP99       0.3671
    130  OD1       27.7390   13.7800   41.0760 O.co2  99  ASP99      -0.2456
    131  OD2       27.6750   15.4910   39.7120 O.co2  99  ASP99      -0.2456
    132  N         26.5660   19.9880   38.8160 N.3   144  ARG144     -0.1231
    133  CA        26.9620   19.3240   40.0550 C.3   144  ARG144      0.1694
    134  C         25.8830   19.4130   41.1350 C.2   144  ARG144      0.2592
    135  O         25.8910   18.6290   42.0860 O.2   144  ARG144     -0.2718
    136  CB        28.2630   19.9290   40.5990 C.3   144  ARG144      0.0321
    137  CG        28.1380   21.4070   40.9640 C.3   144  ARG144      0.0489
    138  CD        29.3610   21.9430   41.6950 C.3   144  ARG144      0.2205
    139  NE        29.1970   23.3820   41.8990 N.pl3 144  ARG144     -0.0865
    140  CZ        29.3960   24.2900   40.9510 C.cat 144  ARG144      0.5346
    141  NH1       29.7880   23.9040   39.7410 N.pl3 144  ARG144      0.1354
    142  NH2       29.1590   25.5760   41.1980 N.pl3 144  ARG144      0.1354
    143  N         24.9540   20.3560   40.9950 N.am  145  ASN145     -0.1974
    144  CA        23.9170   20.5190   42.0050 C.3   145  ASN145      0.1688
    145  C         22.5440   19.9680   41.6440 C.2   145  ASN145      0.2292
    146  O         21.5800   20.1380   42.3960 O.2   145  ASN145     -0.2864
    147  CB        23.8360   21.9940   42.4330 C.3   145  ASN145      0.1181
    148  CG        25.0510   22.4160   43.2490 C.2   145  ASN145      0.2629
    149  OD1       25.5490   21.6400   44.0540 O.2   145  ASN145     -0.2716
    150  ND2       25.5280   23.6440   43.0490 N.am  145  ASN145     -0.0877
    151  N         20.4540   16.3990   40.4980 N.3   147  MET147     -0.1245
    152  CA        20.5860   14.9570   40.7310 C.3   147  MET147      0.1570
    153  C         19.7430   14.1840   39.7200 C.2   147  MET147      0.2261
    154  O         18.8040   14.7290   39.1390 O.2   147  MET147     -0.2867
    155  CB        20.1230   14.5910   42.1440 C.3   147  MET147      0.0387
    156  CG        20.9010   15.2340   43.2870 C.3   147  MET147      0.0595
    157  SD        22.6280   14.7080   43.3970 S.3   147  MET147     -0.1393
    158  CE        22.4490   13.1510   44.2420 C.3   147  MET147      0.0692
    159  N         20.8030   20.7150   45.5350 N.3   158  ASP158     -0.1239
    160  CA        21.6550   21.3000   46.5710 C.3   158  ASP158      0.1674
    161  C         21.1890   22.7440   46.7290 C.2   158  ASP158      0.2266
    162  O         21.0300   23.4440   45.7370 O.2   158  ASP158     -0.2867
    163  CB        23.1320   21.2730   46.1500 C.3   158  ASP158      0.1410
    164  CG        24.0770   21.6140   47.3020 C.2   158  ASP158      0.3668
    165  OD1       24.4970   20.6800   48.0270 O.co2 158  ASP158     -0.2456
    166  OD2       24.3910   22.8110   47.4980 O.co2 158  ASP158     -0.2456
    167  N         22.6580   25.0100   49.1580 N.3   160  GLY160     -0.1225
    168  CA        23.5880   25.6710   50.0530 C.3   160  GLY160      0.1811
    169  C         23.6270   27.1840   49.9580 C.2   160  GLY160      0.2280
    170  O         23.8890   27.8440   50.9560 O.2   160  GLY160     -0.2866
@<TRIPOS>BOND
     1   127   126    2
     2   132   133    1
     3   126   125    1
     4   154   153    2
     5   131   129   ar
     6   153   152    1
     7   141   140    1
     8   133   136    1
     9   133   134    1
    10   123   122    2
    11   151   152    1
    12   125   124    1
    13   125   128    1
    14   129   130   ar
    15   129   128    1
    16   136   137    1
    17   152   155    1
    18   122   124   am
    19   122   121    1
    20   140   142    1
    21   140   139    2
    22   137   138    1
    23   118   117    1
    24   143   134   am
    25   143   144    1
    26   120   121    1
    27   134   135    2
    28   112   111    1
    29   115   116    2
    30   115   114    1
    31   145   144    1
    32   145   146    2
    33   138   139    1
    34   144   147    1
    35   117   114    1
    36   117   119    1
    37   155   156    1
    38   147   148    1
    39   114   113    1
    40   113   107   am
    41   150   148   am
    42   111   110    1
    43   107   108    2
    44   107   106    1
    45   148   149    2
    46   156   157    1
    47   109   106    1
    48   109   110    1
    49   157   158    1
    50   106   105    1
    51    95    94   ar
    52    79    77    1
    53    73    74    1
    54   100    99    2
    55   105    99   am
    56    94    96   ar
    57    94    93    1
    58    74    77    1
    59    74    75    1
    60    99    98    1
    61   159   160    1
    62   162   161    2
    63    77    78    1
    64   163   160    1
    65   163   164    1
    66    93    92    1
    67   160   161    1
    68    75    76    2
    69   102   104    1
    70   102   101    1
    71   102   103    1
    72    98   101    1
    73    98    97    1
    74   164   166   ar
    75   164   165   ar
    76    92    89    1
    77     4     3    2
    78    97    90   am
    79    91    90    2
    80     8     6    1
    81    90    89    1
    82    89    88    1
    83     3     2    1
    84     3     9   am
    85     7     6    1
    86     5     6    1
    87     5     2    1
    88     2     1    1
    89   167   168    1
    90    10     9    1
    91    10    11    1
    92    87    86    1
    93    88    82   am
    94    16    15    2
    95   169   168    1
    96   169   170    2
    97    54    51    1
    98    11    13   am
    99    11    12    2
   100    72    70   ar
   101    13    14    1
   102    82    83    2
   103    82    81    1
   104    31    30    1
   105    15    14    1
   106    15    22   am
   107    84    81    1
   108    84    85    1
   109    50    51    1
   110    51    52    1
   111    86    85    1
   112    48    47    1
   113    63    62    1
   114    14    17    1
   115    70    71   ar
   116    70    69    1
   117    23    22    1
   118    23    24    1
   119    17    18    1
   120    47    49    1
   121    47    44    1
   122    81    80    1
   123    62    61    1
   124    26    24   am
   125    26    27    1
   126    24    25    2
   127    69    68    1
   128    61    60    1
   129    46    45    2
   130    30    27    1
   131    27    28    1
   132    52    53    2
   133    18    19    1
   134    45    44    1
   135    60    59    1
   136    44    43    1
   137    67    66    2
   138    68    65    1
   139    28    29    2
   140    28    32   am
   141    19    21   am
   142    19    20    2
   143    65    66    1
   144    65    64    1
   145    59    56    1
   146    40    42   ar
   147    40    38   ar
   148    32    33    1
   149    55    56    1
   150    56    57    1
   151    42    41   ar
   152    38    37   ar
   153    41    39   ar
   154    33    34    1
   155    33    36    1
   156    37    39   ar
   157    37    36    1
   158    57    58    2
   159    34    35    2
