@<TRIPOS>MOLECULE
tmp/1k3cA00.pdb
 169 160 0 0 0
SMALL
GASTEIGER

@<TRIPOS>ATOM
      1  N         28.2070    5.1550    6.5730 N.3   245  SER245     -0.1202
      2  CA        29.1770    6.0170    7.2330 C.3   245  SER245      0.2020
      3  C         28.6640    7.4320    7.4590 C.2   245  SER245      0.2619
      4  O         28.0750    8.0380    6.5590 O.2   245  SER245     -0.2717
      5  CB        30.4930    6.0380    6.4460 C.3   245  SER245      0.2103
      6  OG        31.4080    6.9410    7.0390 O.3   245  SER245     -0.2182
      7  N         28.8870    7.9480    8.6680 N.am  246  GLY246     -0.1942
      8  CA        28.4570    9.2910    9.0160 C.3   246  GLY246      0.2014
      9  C         26.9960    9.4670    9.4030 C.2   246  GLY246      0.2640
     10  O         26.5590   10.5930    9.6250 O.2   246  GLY246     -0.2714
     11  N         26.2420    8.3700    9.4960 N.am  247  THR247     -0.1936
     12  CA        24.8230    8.4570    9.8480 C.3   247  THR247      0.2028
     13  C         24.5290    8.6280   11.3400 C.2   247  THR247      0.2643
     14  O         23.5020    9.2030   11.6990 O.2   247  THR247     -0.2714
     15  CB        24.0140    7.2650    9.3010 C.3   247  THR247      0.1808
     16  OG1       24.5990    6.0390    9.7420 O.3   247  THR247     -0.2208
     17  CG2       23.9660    7.2920    7.7810 C.3   247  THR247      0.0379
     18  N         25.3980    8.1050   12.2020 N.am  248  GLY248     -0.1939
     19  CA        25.1920    8.2620   13.6300 C.3   248  GLY248      0.2014
     20  C         25.2960    7.0120   14.4780 C.2   248  GLY248      0.2639
     21  O         24.9860    7.0630   15.6570 O.2   248  GLY248     -0.2714
     22  N         25.7400    5.8950   13.9160 N.am  249  LYS249     -0.1963
     23  CA        25.8450    4.6660   14.7010 C.3   249  LYS249      0.1728
     24  C         26.6580    4.8330   15.9740 C.2   249  LYS249      0.2617
     25  O         26.2060    4.4590   17.0500 O.2   249  LYS249     -0.2715
     26  CB        26.4260    3.5300   13.8630 C.3   249  LYS249      0.0311
     27  CG        25.5940    3.1640   12.6420 C.3   249  LYS249      0.0038
     28  CD        26.2210    2.0090   11.8750 C.3   249  LYS249      0.0206
     29  CE        27.5880    2.3930   11.2870 C.3   249  LYS249      0.1093
     30  NZ        27.5040    3.4980   10.2730 N.3   249  LYS249     -0.1314
     31  N         27.8220    5.4620   15.8610 N.am  250  THR250     -0.1937
     32  CA        28.7020    5.6720   17.0130 C.3   250  THR250      0.2028
     33  C         28.2360    6.8200   17.9150 C.2   250  THR250      0.2643
     34  O         28.3210    6.7420   19.1400 O.2   250  THR250     -0.2714
     35  CB        30.1680    5.9280   16.5450 C.3   250  THR250      0.1808
     36  OG1       30.6250    4.8140   15.7690 O.3   250  THR250     -0.2208
     37  CG2       31.1000    6.1120   17.7310 C.3   250  THR250      0.0379
     38  N         27.7480    7.8890   17.3050 N.am  251  THR251     -0.1936
     39  CA        27.2810    9.0500   18.0510 C.3   251  THR251      0.2028
     40  C         26.0640    8.7320   18.9020 C.2   251  THR251      0.2642
     41  O         26.0170    9.0550   20.0880 O.2   251  THR251     -0.2714
     42  CB        26.9230   10.2120   17.0920 C.3   251  THR251      0.1808
     43  OG1       28.1070   10.6620   16.4270 O.3   251  THR251     -0.2208
     44  CG2       26.3310   11.3740   17.8420 C.3   251  THR251      0.0379
     45  N         25.1070    8.0430   18.3010 N.am  252  LEU252     -0.1977
     46  CA        23.8620    7.7220   18.9750 C.3   252  LEU252      0.1596
     47  C         23.8170    6.5120   19.9130 C.2   252  LEU252      0.2287
     48  O         23.0470    6.5130   20.8690 O.2   252  LEU252     -0.2864
     49  CB        22.7340    7.6780   17.9450 C.3   252  LEU252      0.0297
     50  CG        22.6340    8.9650   17.1090 C.3   252  LEU252      0.0022
     51  CD1       21.6290    8.7980   15.9710 C.3   252  LEU252      0.0001
     52  CD2       22.2590   10.1500   17.9930 C.3   252  LEU252      0.0001
     53  N         29.9440   -0.7260   15.8240 N.3   264  ASP264     -0.1239
     54  CA        30.0120   -0.8490   14.3730 C.3   264  ASP264      0.1674
     55  C         29.7780   -2.2180   13.7370 C.2   264  ASP264      0.2266
     56  O         29.2420   -2.2920   12.6410 O.2   264  ASP264     -0.2867
     57  CB        31.3650   -0.2800   13.9180 C.3   264  ASP264      0.1410
     58  CG        31.4630   -0.0980   12.4180 C.2   264  ASP264      0.3668
     59  OD1       32.2320   -0.8420   11.7860 O.co2 264  ASP264     -0.2456
     60  OD2       30.7890    0.7960   11.8750 O.co2 264  ASP264     -0.2456
     61  N         35.5960    3.3250   16.9160 N.3   281  TYR281     -0.1227
     62  CA        36.3150    4.1270   15.9400 C.3   281  TYR281      0.1736
     63  C         35.4890    5.3800   15.6520 C.2   281  TYR281      0.2595
     64  O         34.7590    5.4520   14.6680 O.2   281  TYR281     -0.2718
     65  CB        36.5120    3.2680   14.6870 C.3   281  TYR281      0.0548
     66  CG        37.5640    3.7500   13.7180 C.ar  281  TYR281     -0.0200
     67  CD1       38.6570    4.5020   14.1520 C.ar  281  TYR281     -0.0009
     68  CD2       37.4670    3.4420   12.3570 C.ar  281  TYR281     -0.0009
     69  CE1       39.6290    4.9370   13.2500 C.ar  281  TYR281      0.0417
     70  CE2       38.4290    3.8690   11.4500 C.ar  281  TYR281      0.0417
     71  CZ        39.5030    4.6160   11.9020 C.ar  281  TYR281      0.1957
     72  OH        40.4280    5.0580   10.9950 O.3   281  TYR281     -0.2866
     73  N         35.6300    6.3800   16.5120 N.am  282  ALA282     -0.1966
     74  CA        34.8600    7.6030   16.3880 C.3   282  ALA282      0.1728
     75  C         35.3730    8.6500   15.4360 C.2   282  ALA282      0.2616
     76  O         36.5770    8.7960   15.2330 O.2   282  ALA282     -0.2715
     77  CB        34.6550    8.2280   17.7540 C.3   282  ALA282      0.0334
     78  N         34.4260    9.3800   14.8510 N.am  283  LYS283     -0.1977
     79  CA        34.7370   10.4630   13.9470 C.3   283  LYS283      0.1596
     80  C         35.0270   11.6580   14.8340 C.2   283  LYS283      0.2287
     81  O         34.3760   11.8520   15.8570 O.2   283  LYS283     -0.2864
     82  CB        33.5650   10.7310   13.0040 C.3   283  LYS283      0.0298
     83  CG        33.4470    9.6820   11.9060 C.3   283  LYS283      0.0038
     84  CD        32.1690    9.8210   11.0980 C.3   283  LYS283      0.0206
     85  CE        31.9360   11.2450   10.6300 C.3   283  LYS283      0.1093
     86  NZ        33.0680   11.7620    9.8240 N.3   283  LYS283     -0.1314
     87  N         35.7880   14.9200   13.2980 N.3   285  ILE285     -0.1245
     88  CA        35.6100   16.1760   12.5780 C.3   285  ILE285      0.1561
     89  C         34.5960   17.0300   13.3200 C.2   285  ILE285      0.2260
     90  O         33.4970   16.5730   13.6410 O.2   285  ILE285     -0.2867
     91  CB        35.1830   15.9630   11.1110 C.3   285  ILE285      0.0252
     92  CG1       35.2620   17.2890   10.3550 C.3   285  ILE285      0.0019
     93  CG2       33.7940   15.3320   11.0320 C.3   285  ILE285      0.0019
     94  CD1       36.7000   17.8220   10.2250 C.3   285  ILE285      0.0001
     95  N         34.3550   17.6790   16.3010 N.3   287  LEU287     -0.1245
     96  CA        33.9440   17.0410   17.5510 C.3   287  LEU287      0.1561
     97  C         33.6610   18.0770   18.6310 C.2   287  LEU287      0.2260
     98  O         34.4010   19.0520   18.7900 O.2   287  LEU287     -0.2867
     99  CB        35.0190   16.0640   18.0330 C.3   287  LEU287      0.0270
    100  CG        34.6750   15.1590   19.2140 C.3   287  LEU287      0.0019
    101  CD1       33.4680   14.2970   18.8730 C.3   287  LEU287      0.0001
    102  CD2       35.8670   14.2740   19.5510 C.3   287  LEU287      0.0001
    103  N         29.1590   15.6480   22.5190 N.3   292  GLU292     -0.1245
    104  CA        29.6170   14.2610   22.5900 C.3   292  GLU292      0.1567
    105  C         30.6880   14.1260   23.6710 C.2   292  GLU292      0.2260
    106  O         31.8320   13.7760   23.3880 O.2   292  GLU292     -0.2867
    107  CB        30.1660   13.8080   21.2340 C.3   292  GLU292      0.0388
    108  CG        29.1670   13.9070   20.0880 C.3   292  GLU292      0.1160
    109  CD        29.6310   13.1880   18.8330 C.2   292  GLU292      0.3649
    110  OE1       29.5590   11.9410   18.8010 O.co2 292  GLU292     -0.2457
    111  OE2       30.0600   13.8670   17.8740 O.co2 292  GLU292     -0.2457
    112  N         39.6470   10.6830   12.6710 N.3   328  ARG328     -0.1245
    113  CA        39.1250    9.6620   13.5800 C.3   328  ARG328      0.1563
    114  C         39.9050    9.5550   14.8720 C.2   328  ARG328      0.2260
    115  O         40.8790   10.2740   15.0940 O.2   328  ARG328     -0.2867
    116  CB        39.2030    8.2840   12.9180 C.3   328  ARG328      0.0307
    117  CG        38.3610    8.0900   11.6900 C.3   328  ARG328      0.0489
    118  CD        36.9640    7.6340   12.0410 C.3   328  ARG328      0.2205
    119  NE        36.1850    7.4390   10.8320 N.pl3 328  ARG328     -0.0865
    120  CZ        35.1260    6.6520   10.7320 C.cat 328  ARG328      0.5346
    121  NH1       34.7010    5.9640   11.7790 N.pl3 328  ARG328      0.1354
    122  NH2       34.4750    6.5800    9.5800 N.pl3 328  ARG328      0.1354
    123  N         18.8260   11.2550   10.4110 N.3   436  THR436     -0.1218
    124  CA        19.7380   12.0500   11.2250 C.3   436  THR436      0.1862
    125  C         20.3080   13.1620   10.3500 C.2   436  THR436      0.2287
    126  O         21.1340   13.9510   10.7940 O.2   436  THR436     -0.2866
    127  CB        20.9210   11.2070   11.7390 C.3   436  THR436      0.1770
    128  OG1       21.8260   10.9350   10.6570 O.3   436  THR436     -0.2211
    129  CG2       20.4240    9.8960   12.3210 C.3   436  THR436      0.0375
    130  N         21.3560   20.2320    9.1280 N.3   444  ARG444     -0.1231
    131  CA        21.1730   18.8910    9.6470 C.3   444  ARG444      0.1694
    132  C         20.3870   19.0070   10.9530 C.2   444  ARG444      0.2592
    133  O         20.5390   19.9930   11.6820 O.2   444  ARG444     -0.2718
    134  CB        22.5450   18.2600    9.8940 C.3   444  ARG444      0.0321
    135  CG        22.4960   16.7930   10.2070 C.3   444  ARG444      0.0489
    136  CD        23.8310   16.1210    9.9470 C.3   444  ARG444      0.2205
    137  NE        23.7350   14.6940   10.2260 N.pl3 444  ARG444     -0.0865
    138  CZ        24.7370   13.8310   10.1310 C.cat 444  ARG444      0.5346
    139  NH1       25.9420   14.2420    9.7540 N.pl3 444  ARG444      0.1354
    140  NH2       24.5240   12.5500   10.4140 N.pl3 444  ARG444      0.1354
    141  N         19.5260   18.0340   11.2440 N.am  445  ILE445     -0.1966
    142  CA        18.7650   18.1070   12.4880 C.3   445  ILE445      0.1727
    143  C         19.7420   17.9980   13.6580 C.2   445  ILE445      0.2617
    144  O         20.7690   17.3290   13.5560 O.2   445  ILE445     -0.2715
    145  CB        17.6390   17.0340   12.5860 C.3   445  ILE445      0.0290
    146  CG1       18.2020   15.6640   12.9470 C.3   445  ILE445      0.0022
    147  CG2       16.8740   16.9350   11.2610 C.3   445  ILE445      0.0023
    148  CD1       17.1100   14.6570   13.2230 C.3   445  ILE445      0.0001
    149  N         19.4430   18.6980   14.7480 N.am  446  SER446     -0.1936
    150  CA        20.3160   18.6940   15.9160 C.3   446  SER446      0.2055
    151  C         20.4400   17.3310   16.5680 C.2   446  SER446      0.2642
    152  O         19.5130   16.5240   16.5380 O.2   446  SER446     -0.2714
    153  CB        19.8350   19.7030   16.9580 C.3   446  SER446      0.2130
    154  OG        18.7470   19.1800   17.6970 O.3   446  SER446     -0.2179
    155  N         21.6100   17.0880   17.1460 N.am  447  ILE447     -0.1977
    156  CA        21.9010   15.8440   17.8530 C.3   447  ILE447      0.1596
    157  C         20.9810   15.7200   19.0880 C.2   447  ILE447      0.2287
    158  O         20.6870   14.6170   19.5450 O.2   447  ILE447     -0.2864
    159  CB        23.3970   15.8060   18.2730 C.3   447  ILE447      0.0276
    160  CG1       23.7010   14.5710   19.1150 C.3   447  ILE447      0.0022
    161  CG2       23.7640   17.0650   19.0370 C.3   447  ILE447      0.0022
    162  CD1       23.6090   13.2910   18.3550 C.3   447  ILE447      0.0001
    163  N         17.6370   14.4330   17.8000 N.3   450  THR450     -0.1218
    164  CA        17.8730   13.0650   17.3820 C.3   450  THR450      0.1862
    165  C         17.9930   12.1260   18.5680 C.2   450  THR450      0.2287
    166  O         17.4650   11.0150   18.5360 O.2   450  THR450     -0.2866
    167  CB        19.1090   12.9710   16.4850 C.3   450  THR450      0.1770
    168  OG1       18.9590   13.8840   15.3930 O.3   450  THR450     -0.2211
    169  CG2       19.2580   11.5650   15.9220 C.3   450  THR450      0.0375
@<TRIPOS>BOND
     1     5     6    1
     2     5     2    1
     3     4     3    2
     4     1     2    1
     5     2     3    1
     6     3     7   am
     7    17    15    1
     8     7     8    1
     9     8     9    1
    10   130   131    1
    11    15    16    1
    12    15    12    1
    13     9    11   am
    14     9    10    2
    15    11    12    1
    16   122   120    1
    17   131   134    1
    18   131   132    1
    19   139   138    1
    20    86    85    1
    21    12    13    1
    22   134   135    1
    23   136   135    1
    24   136   137    1
    25   138   137    2
    26   138   140    1
    27    94    92    1
    28    30    29    1
    29   125   126    2
    30   125   124    1
    31    92    91    1
    32   123   124    1
    33    85    84    1
    34   128   127    1
    35   120   119    2
    36   120   121    1
    37   119   118    1
    38   132   141   am
    39   132   133    2
    40    72    71    1
    41    93    91    1
    42    84    83    1
    43    91    88    1
    44   124   127    1
    45   141   142    1
    46   147   145    1
    47    29    28    1
    48    13    14    2
    49    13    18   am
    50    70    71   ar
    51    70    68   ar
    52   117   118    1
    53   117   116    1
    54   127   129    1
    55    59    58   ar
    56    60    58   ar
    57    28    27    1
    58    71    69   ar
    59    83    82    1
    60    18    19    1
    61    68    66   ar
    62    58    57    1
    63   142   145    1
    64   142   143    1
    65    88    87    1
    66    88    89    1
    67   145   146    1
    68    56    55    2
    69    27    26    1
    70   112   113    1
    71   116   113    1
    72   146   148    1
    73    82    79    1
    74    69    67   ar
    75    89    90    2
    76   144   143    2
    77   113   114    1
    78    19    20    1
    79   143   149   am
    80    66    67   ar
    81    66    65    1
    82    55    54    1
    83    26    23    1
    84    22    20   am
    85    22    23    1
    86    57    54    1
    87    79    80    1
    88    79    78    1
    89    54    53    1
    90    20    21    2
    91    64    63    2
    92    65    62    1
    93    23    24    1
    94   149   150    1
    95    80    81    2
    96    78    75   am
    97   114   115    2
    98    76    75    2
    99   168   167    1
   100    75    74    1
   101    63    62    1
   102    63    73   am
   103    36    35    1
   104    31    24   am
   105    31    32    1
   106   150   151    1
   107   150   153    1
   108   169   167    1
   109    62    61    1
   110    51    50    1
   111    24    25    2
   112    95    96    1
   113    74    73    1
   114    74    77    1
   115    43    42    1
   116   167   164    1
   117   152   151    2
   118    35    32    1
   119    35    37    1
   120   151   155   am
   121   153   154    1
   122    32    33    1
   123    42    44    1
   124    42    39    1
   125    50    49    1
   126    50    52    1
   127   155   156    1
   128    38    33   am
   129    38    39    1
   130   164   163    1
   131   164   165    1
   132    96    99    1
   133    96    97    1
   134   156   159    1
   135   156   157    1
   136   111   109   ar
   137    33    34    2
   138    49    46    1
   139    99   100    1
   140    39    40    1
   141   159   161    1
   142   159   160    1
   143    45    40   am
   144    45    46    1
   145   162   160    1
   146   166   165    2
   147    97    98    2
   148   110   109   ar
   149   109   108    1
   150   101   100    1
   151    40    41    2
   152    46    47    1
   153   157   158    2
   154   100   102    1
   155    47    48    2
   156   108   107    1
   157   107   104    1
   158   103   104    1
   159   104   105    1
   160   106   105    2
