@<TRIPOS>MOLECULE
tmp/1k3tC00.pdb
 137 129 0 0 0
SMALL
GASTEIGER

@<TRIPOS>ATOM
      1  N         28.5840    0.2320    4.1070 N.3    13  ILE13      -0.1245
      2  CA        27.6060    0.7140    3.0880 C.3    13  ILE13       0.1561
      3  C         27.6580   -0.0460    1.7830 C.2    13  ILE13       0.2260
      4  O         26.6030   -0.4260    1.2120 O.2    13  ILE13      -0.2867
      5  CB        27.5180    2.2240    3.0670 C.3    13  ILE13       0.0252
      6  CG1       26.0130    2.5690    3.2620 C.3    13  ILE13       0.0019
      7  CG2       28.0480    2.9820    1.8800 C.3    13  ILE13       0.0019
      8  CD1       25.0240    1.7600    2.4440 C.3    13  ILE13       0.0001
      9  N         28.2720    7.1580   -3.0670 N.3   134  SER134     -0.1202
     10  CA        27.2620    6.8030   -2.0740 C.3   134  SER134      0.2020
     11  C         27.3400    7.6460   -0.8020 C.2   134  SER134      0.2619
     12  O         26.9640    7.1600    0.2710 O.2   134  SER134     -0.2717
     13  CB        27.4070    5.3240   -1.6900 C.3   134  SER134      0.2103
     14  OG        28.5750    5.2310   -0.8820 O.3   134  SER134     -0.2182
     15  N         27.5870    8.9280   -0.8630 N.am  135  ALA135     -0.1965
     16  CA        27.6330    9.9470    0.1370 C.3   135  ALA135      0.1713
     17  C         27.5550   11.3360   -0.5120 C.2   135  ALA135      0.2458
     18  O         27.7280   11.5150   -1.7100 O.2   135  ALA135     -0.2730
     19  CB        28.9700    9.9640    0.8780 C.3   135  ALA135      0.0333
     20  N         27.3400   12.3480    0.3120 N.am  136  PRO136     -0.2727
     21  CA        27.3250   13.7270   -0.1910 C.3   136  PRO136      0.1402
     22  C         28.6860   13.9990   -0.8160 C.2   136  PRO136      0.2269
     23  O         29.7250   13.8080   -0.1900 O.2   136  PRO136     -0.2865
     24  CB        26.9790   14.5420    1.0330 C.3   136  PRO136      0.0296
     25  CG        26.3490   13.5890    2.0060 C.3   136  PRO136      0.0237
     26  CD        27.0870   12.2850    1.7730 C.3   136  PRO136      0.0939
     27  N         22.7810   12.0010    0.9370 N.3   165  SER165     -0.1202
     28  CA        22.8770   11.3060    2.2140 C.3   165  SER165      0.2020
     29  C         21.6370   10.5980    2.6290 C.2   165  SER165      0.2619
     30  O         20.5630   11.0290    2.1530 O.2   165  SER165     -0.2717
     31  CB        23.1440   12.4050    3.2720 C.3   165  SER165      0.2103
     32  OG        21.9810   13.1890    3.5380 O.3   165  SER165     -0.2182
     33  N         21.6170    9.5730    3.4960 N.am  166  CYS166     -0.1955
     34  CA        20.3140    9.0490    3.9010 C.3   166  CYS166      0.1843
     35  C         19.3960   10.1500    4.4850 C.2   166  CYS166      0.2626
     36  O         18.1740    9.9650    4.3070 O.2   166  CYS166     -0.2714
     37  CB        20.4430    7.9420    4.9500 C.3   166  CYS166      0.0997
     38  SG        21.6170    6.6910    4.3530 S.3   166  CYS166     -0.0797
     39  N         19.9460   11.0970    5.2160 N.am  167  THR167     -0.1950
     40  CA        19.0380   12.1700    5.7530 C.3   167  THR167      0.1897
     41  C         18.3680   13.0150    4.6730 C.2   167  THR167      0.2313
     42  O         17.1470   13.2190    4.6690 O.2   167  THR167     -0.2863
     43  CB        19.7820   13.0740    6.7590 C.3   167  THR167      0.1794
     44  OG1       20.2710   12.1040    7.7280 O.3   167  THR167     -0.2208
     45  CG2       18.8450   13.9970    7.5560 C.3   167  THR167      0.0378
     46  N         18.6470   10.6860   14.9070 N.3   194  HIS194     -0.1241
     47  CA        19.4070    9.6810   14.1980 C.3   194  HIS194      0.1621
     48  C         20.0600    8.6400   15.0830 C.2   194  HIS194      0.2264
     49  O         20.6830    8.9480   16.0910 O.2   194  HIS194     -0.2867
     50  CB        20.4240   10.5210   13.4030 C.3   194  HIS194      0.0745
     51  CG        20.9260    9.9000   12.1410 C.ar  194  HIS194      0.0817
     52  ND1       21.6460    8.7140   12.1730 N.ar  194  HIS194     -0.2268
     53  CD2       20.9110   10.2930   10.8540 C.ar  194  HIS194      0.1154
     54  CE1       22.0300    8.3950   10.9390 C.ar  194  HIS194      0.1986
     55  NE2       21.5980    9.3370   10.1230 N.ar  194  HIS194     -0.2212
     56  N         25.9630    5.8730   14.4220 N.3   197  THR197     -0.1218
     57  CA        26.5560    5.2400   13.2310 C.3   197  THR197      0.1862
     58  C         27.9510    4.7630   13.5980 C.2   197  THR197      0.2287
     59  O         28.4350    4.8960   14.7280 O.2   197  THR197     -0.2866
     60  CB        26.5280    6.1550   11.9950 C.3   197  THR197      0.1770
     61  OG1       27.2300    7.3660   12.2760 O.3   197  THR197     -0.2211
     62  CG2       25.1100    6.5590   11.5580 C.3   197  THR197      0.0375
     63  N         30.8440    6.0500   12.6410 N.3   199  THR199     -0.1218
     64  CA        31.8460    7.0770   12.8980 C.3   199  THR199      0.1862
     65  C         31.8120    7.4460   14.3830 C.2   199  THR199      0.2287
     66  O         32.5080    8.3220   14.8860 O.2   199  THR199     -0.2866
     67  CB        31.5660    8.3490   12.0720 C.3   199  THR199      0.1770
     68  OG1       30.3490    8.9230   12.6090 O.3   199  THR199     -0.2211
     69  CG2       31.3420    8.0820   10.5960 C.3   199  THR199      0.0375
     70  N         34.8690   17.2560   16.1850 N.3   210  ASP210     -0.1239
     71  CA        33.4600   17.2240   16.6320 C.3   210  ASP210      0.1674
     72  C         33.5060   16.7600   18.0680 C.2   210  ASP210      0.2266
     73  O         33.4030   15.5640   18.3390 O.2   210  ASP210     -0.2867
     74  CB        32.6470   16.3490   15.7070 C.3   210  ASP210      0.1410
     75  CG        31.1940   16.2500   16.1500 C.2   210  ASP210      0.3668
     76  OD1       30.7690   17.0380   17.0310 O.co2 210  ASP210     -0.2456
     77  OD2       30.5480   15.3460   15.5610 O.co2 210  ASP210     -0.2456
     78  N         24.2590   17.3500   16.8820 N.3   224  SER224     -0.1202
     79  CA        25.1710   17.6610   15.7960 C.3   224  SER224      0.2020
     80  C         24.5600   18.5550   14.7240 C.2   224  SER224      0.2619
     81  O         23.3450   18.6260   14.4970 O.2   224  SER224     -0.2717
     82  CB        25.5980   16.3920   15.0500 C.3   224  SER224      0.2103
     83  OG        26.5720   16.7600   14.0890 O.3   224  SER224     -0.2182
     84  N         25.4460   19.3540   14.1150 N.am  225  THR225     -0.1938
     85  CA        25.0590   20.1270   12.9240 C.3   225  THR225      0.2028
     86  C         24.9690   19.1270   11.7600 C.2   225  THR225      0.2642
     87  O         25.4920   18.0020   11.8320 O.2   225  THR225     -0.2714
     88  CB        26.1530   21.1360   12.5400 C.3   225  THR225      0.1808
     89  OG1       27.3250   20.3170   12.4220 O.3   225  THR225     -0.2208
     90  CG2       26.3230   22.2180   13.5840 C.3   225  THR225      0.0379
     91  N         24.1890   19.4340   10.7310 N.am  226  THR226     -0.1950
     92  CA        24.0710   18.5730    9.5710 C.3   226  THR226      0.1897
     93  C         23.8230   19.4410    8.3200 C.2   226  THR226      0.2313
     94  O         23.1770   20.4830    8.4210 O.2   226  THR226     -0.2863
     95  CB        22.9960   17.5010    9.7140 C.3   226  THR226      0.1794
     96  OG1       22.8950   16.7080    8.5200 O.3   226  THR226     -0.2208
     97  CG2       21.6100   18.1160    9.9100 C.3   226  THR226      0.0378
     98  N         21.9960   12.6120   17.8820 N.3   249  ARG249     -0.1245
     99  CA        22.3500   11.1700   17.7360 C.3   249  ARG249      0.1563
    100  C         21.9130   10.4810   19.0180 C.2   249  ARG249      0.2260
    101  O         22.2510   10.8940   20.1190 O.2   249  ARG249     -0.2867
    102  CB        23.8680   10.9960   17.5870 C.3   249  ARG249      0.0307
    103  CG        24.4170   11.7980   16.4010 C.3   249  ARG249      0.0489
    104  CD        25.6640   12.6060   16.7400 C.3   249  ARG249      0.2205
    105  NE        26.7950   12.3020   15.8430 N.pl3 249  ARG249     -0.0865
    106  CZ        27.9140   13.0340   15.7800 C.cat 249  ARG249      0.5346
    107  NH1       28.1040   14.1260   16.5290 N.pl3 249  ARG249      0.1354
    108  NH2       28.9000   12.7220   14.9480 N.pl3 249  ARG249      0.1354
    109  N         17.8950    4.3770    8.1110 N.3   335  ASN335     -0.1225
    110  CA        18.9640    5.1610    7.5210 C.3   335  ASN335      0.1785
    111  C         19.8980    4.2930    6.6940 C.2   335  ASN335      0.2597
    112  O         20.5470    4.8090    5.8260 O.2   335  ASN335     -0.2718
    113  CB        19.7610    5.9650    8.5540 C.3   335  ASN335      0.1169
    114  CG        19.9210    5.2200    9.8770 C.2   335  ASN335      0.2627
    115  OD1       19.0360    5.0900   10.6980 O.2   335  ASN335     -0.2716
    116  ND2       21.1430    4.7320   10.1240 N.am  335  ASN335     -0.0877
    117  N         19.9940    3.0230    7.0710 N.am  336  GLU336     -0.1979
    118  CA        20.8360    2.1100    6.3470 C.3   336  GLU336      0.1602
    119  C         20.1200    1.5410    5.1200 C.2   336  GLU336      0.2287
    120  O         20.5510    1.7550    4.0200 O.2   336  GLU336     -0.2864
    121  CB        21.1940    0.9750    7.3530 C.3   336  GLU336      0.0415
    122  CG        22.2680    1.4090    8.3240 C.3   336  GLU336      0.1163
    123  CD        22.6800    0.2910    9.2940 C.2   336  GLU336      0.3649
    124  OE1       21.9480   -0.7080    9.4680 O.co2 336  GLU336     -0.2457
    125  OE2       23.7690    0.4330    9.9070 O.co2 336  GLU336     -0.2457
    126  N         18.4160    4.0380    1.7700 N.3   339  TYR339     -0.1241
    127  CA        19.4930    4.5800    1.0330 C.3   339  TYR339      0.1605
    128  C         20.2480    3.5860    0.1340 C.2   339  TYR339      0.2264
    129  O         20.6510    3.8980   -1.0030 O.2   339  TYR339     -0.2867
    130  CB        20.4930    5.1860    2.0120 C.3   339  TYR339      0.0534
    131  CG        21.5400    6.0050    1.2960 C.ar  339  TYR339     -0.0201
    132  CD1       22.7630    5.4380    0.9680 C.ar  339  TYR339     -0.0009
    133  CD2       21.3130    7.3400    0.9440 C.ar  339  TYR339     -0.0009
    134  CE1       23.7180    6.1550    0.2990 C.ar  339  TYR339      0.0417
    135  CE2       22.2640    8.0600    0.2640 C.ar  339  TYR339      0.0417
    136  CZ        23.4610    7.4660   -0.0570 C.ar  339  TYR339      0.1957
    137  OH        24.4580    8.1290   -0.7140 O.3   339  TYR339     -0.2866
@<TRIPOS>BOND
     1     9    10    1
     2    10    13    1
     3    10    11    1
     4    18    17    2
     5    13    14    1
     6   129   128    2
     7    15    11   am
     8    15    16    1
     9    22    21    1
    10    22    23    2
    11    11    12    2
    12   137   136    1
    13    17    16    1
    14    17    20   am
    15    21    20    1
    16    21    24    1
    17   136   135   ar
    18   136   134   ar
    19   128   127    1
    20    16    19    1
    21   135   133   ar
    22   134   132   ar
    23    20    26    1
    24    27    28    1
    25   133   131   ar
    26   132   131   ar
    27   127   126    1
    28   127   130    1
    29    24    25    1
    30     4     3    2
    31   131   130    1
    32    26    25    1
    33     3     2    1
    34     7     5    1
    35    30    29    2
    36    28    29    1
    37    28    31    1
    38     8     6    1
    39    29    33   am
    40     5     2    1
    41     5     6    1
    42     2     1    1
    43    31    32    1
    44    33    34    1
    45    34    35    1
    46    34    37    1
    47   120   119    2
    48    36    35    2
    49    38    37    1
    50    35    39   am
    51    42    41    2
    52    41    40    1
    53   119   118    1
    54    39    40    1
    55    40    43    1
    56   112   111    2
    57   118   117    1
    58   118   121    1
    59   111   117   am
    60   111   110    1
    61    43    45    1
    62    43    44    1
    63   121   122    1
    64   110   109    1
    65   110   113    1
    66    93    94    2
    67    93    92    1
    68   122   123    1
    69    96    95    1
    70   113   114    1
    71   123   124   ar
    72   123   125   ar
    73    92    95    1
    74    92    91    1
    75    95    97    1
    76   114   116   am
    77   114   115    2
    78    55    53   ar
    79    55    54   ar
    80    69    67    1
    81    91    86   am
    82    53    51   ar
    83    54    52   ar
    84    62    60    1
    85    86    87    2
    86    86    85    1
    87    60    61    1
    88    60    57    1
    89    67    68    1
    90    67    64    1
    91    51    52   ar
    92    51    50    1
    93    89    88    1
    94    88    85    1
    95    88    90    1
    96    63    64    1
    97    64    65    1
    98    85    84    1
    99    57    58    1
   100    57    56    1
   101    50    47    1
   102    58    59    2
   103    83    82    1
   104    84    80   am
   105    47    46    1
   106    47    48    1
   107    65    66    2
   108    81    80    2
   109    80    79    1
   110   108   106    1
   111    82    79    1
   112    48    49    2
   113    77    75   ar
   114    74    75    1
   115    74    71    1
   116   106   105    2
   117   106   107    1
   118    79    78    1
   119   105   104    1
   120    75    76   ar
   121    70    71    1
   122   103   104    1
   123   103   102    1
   124    71    72    1
   125   102    99    1
   126    99    98    1
   127    99   100    1
   128    72    73    2
   129   100   101    2
