@<TRIPOS>MOLECULE
tmp/1k3uA00.pdb
 168 159 0 0 0
SMALL
GASTEIGER

@<TRIPOS>ATOM
      1  N         45.1320   32.9570   16.2860 N.3    22  PHE22      -0.1241
      2  CA        46.4260   32.6620   16.9340 C.3    22  PHE22       0.1605
      3  C         47.3680   33.8530   16.7910 C.2    22  PHE22       0.2264
      4  O         47.4090   34.5150   15.7490 O.2    22  PHE22      -0.2867
      5  CB        47.1010   31.4760   16.2320 C.3    22  PHE22       0.0534
      6  CG        48.5760   31.3330   16.5650 C.ar   22  PHE22      -0.0203
      7  CD1       49.5490   32.1180   15.9050 C.ar   22  PHE22      -0.0042
      8  CD2       48.9850   30.5480   17.6130 C.ar   22  PHE22      -0.0042
      9  CE1       50.9430   31.9750   16.2540 C.ar   22  PHE22      -0.0003
     10  CE2       50.3240   30.4140   18.0040 C.ar   22  PHE22      -0.0003
     11  CZ        51.3330   31.1020   17.3470 C.ar   22  PHE22      -0.0000
     12  N         44.3710   31.0410   20.5760 N.3    49  GLU49      -0.1245
     13  CA        45.4660   30.0730   20.5650 C.3    49  GLU49       0.1567
     14  C         46.7300   30.9780   20.6420 C.2    49  GLU49       0.2260
     15  O         46.8730   31.9540   19.8700 O.2    49  GLU49      -0.2867
     16  CB        45.4560   29.3180   19.2570 C.3    49  GLU49       0.0388
     17  CG        46.3990   28.1820   19.3800 C.3    49  GLU49       0.1160
     18  CD        45.8190   27.0870   20.2710 C.2    49  GLU49       0.3649
     19  OE1       44.5930   26.9610   20.5500 O.co2  49  GLU49      -0.2457
     20  OE2       46.6510   26.3870   20.7880 O.co2  49  GLU49      -0.2457
     21  N         57.5900   23.2380   13.1920 N.3    59  ALA59      -0.1231
     22  CA        56.3260   23.0610   12.4640 C.3    59  ALA59       0.1694
     23  C         55.7570   24.3720   11.9450 C.2    59  ALA59       0.2592
     24  O         54.6310   24.4050   11.4650 O.2    59  ALA59      -0.2718
     25  CB        55.2710   22.3930   13.3340 C.3    59  ALA59       0.0304
     26  N         56.5490   25.4250   11.9780 N.am   60  ASP60      -0.1974
     27  CA        56.0290   26.7060   11.5280 C.3    60  ASP60       0.1709
     28  C         56.6830   27.2170   10.2830 C.2    60  ASP60       0.2293
     29  O         57.9220   27.1220   10.1600 O.2    60  ASP60      -0.2864
     30  CB        56.3050   27.7580   12.6110 C.3    60  ASP60       0.1436
     31  CG        55.2540   27.6660   13.7410 C.2    60  ASP60       0.3671
     32  OD1       54.0200   27.9200   13.4080 O.co2  60  ASP60      -0.2456
     33  OD2       55.5580   27.3000   14.8820 O.co2  60  ASP60      -0.2456
     34  N         55.2010   32.6550   11.0500 N.3    64  ILE64      -0.1245
     35  CA        55.3000   32.4410   12.4800 C.3    64  ILE64       0.1561
     36  C         56.7860   32.3010   12.9220 C.2    64  ILE64       0.2260
     37  O         57.1410   32.6750   14.0330 O.2    64  ILE64      -0.2867
     38  CB        54.3420   31.3310   12.9150 C.3    64  ILE64       0.0252
     39  CG1       52.8630   31.8460   12.7060 C.3    64  ILE64       0.0019
     40  CG2       54.5690   30.9670   14.3910 C.3    64  ILE64       0.0019
     41  CD1       51.8600   30.7440   12.9490 C.3    64  ILE64       0.0001
     42  N         50.0940   26.9740   22.2040 N.3   100  LEU100     -0.1245
     43  CA        50.7890   26.2260   21.1440 C.3   100  LEU100      0.1561
     44  C         52.2370   26.1680   21.6190 C.2   100  LEU100      0.2260
     45  O         52.9630   27.1840   21.7040 O.2   100  LEU100     -0.2867
     46  CB        50.6910   26.9670   19.7990 C.3   100  LEU100      0.0270
     47  CG        51.2490   26.1550   18.5940 C.3   100  LEU100      0.0019
     48  CD1       52.7830   26.1130   18.6680 C.3   100  LEU100      0.0001
     49  CD2       50.7010   24.8130   18.4920 C.3   100  LEU100      0.0001
     50  N         56.1530   23.9470   21.8640 N.3   102  TYR102     -0.1241
     51  CA        57.0290   22.8610   21.4470 C.3   102  TYR102      0.1605
     52  C         57.4410   22.0870   22.6960 C.2   102  TYR102      0.2264
     53  O         57.5490   22.5920   23.8090 O.2   102  TYR102     -0.2867
     54  CB        58.2680   23.4460   20.7220 C.3   102  TYR102      0.0534
     55  CG        57.8180   23.8200   19.2960 C.ar  102  TYR102     -0.0201
     56  CD1       57.9070   22.9470   18.2510 C.ar  102  TYR102     -0.0009
     57  CD2       57.2920   25.0640   19.0560 C.ar  102  TYR102     -0.0009
     58  CE1       57.4460   23.2830   16.9500 C.ar  102  TYR102      0.0417
     59  CE2       56.8590   25.4360   17.7610 C.ar  102  TYR102      0.0417
     60  CZ        56.9300   24.5410   16.7130 C.ar  102  TYR102      0.1957
     61  OH        56.5580   24.9700   15.4260 O.3   102  TYR102     -0.2866
     62  N         48.5090   22.4200   23.0220 N.3   127  LEU127     -0.1245
     63  CA        48.8280   21.6060   21.8350 C.3   127  LEU127      0.1561
     64  C         50.3290   21.6320   21.7990 C.2   127  LEU127      0.2260
     65  O         50.9540   22.6750   21.6580 O.2   127  LEU127     -0.2867
     66  CB        48.2160   22.3070   20.5800 C.3   127  LEU127      0.0270
     67  CG        48.1370   21.4100   19.3560 C.3   127  LEU127      0.0019
     68  CD1       47.3840   22.1280   18.1250 C.3   127  LEU127      0.0001
     69  CD2       49.5390   20.9870   18.9030 C.3   127  LEU127      0.0001
     70  N         53.2370   20.8380   19.5870 N.3   129  ALA129     -0.1245
     71  CA        53.3160   20.5930   18.1240 C.3   129  ALA129      0.1562
     72  C         54.1350   19.3430   17.6780 C.2   129  ALA129      0.2260
     73  O         53.7800   18.7190   16.6500 O.2   129  ALA129     -0.2867
     74  CB        53.8540   21.8080   17.4050 C.3   129  ALA129      0.0290
     75  N         46.4840   17.0110   16.8810 N.3   153  ILE153     -0.1245
     76  CA        46.3020   17.3440   15.4570 C.3   153  ILE153      0.1561
     77  C         45.8800   16.0710   14.7860 C.2   153  ILE153      0.2260
     78  O         46.4330   15.0180   15.0220 O.2   153  ILE153     -0.2867
     79  CB        47.6360   17.8230   14.8650 C.3   153  ILE153      0.0252
     80  CG1       47.9300   19.2750   15.3300 C.3   153  ILE153      0.0019
     81  CG2       47.5660   17.8910   13.3030 C.3   153  ILE153      0.0019
     82  CD1       49.3500   19.8420   14.9410 C.3   153  ILE153      0.0001
     83  N         42.2820   19.4330   16.7810 N.3   175  TYR175     -0.1241
     84  CA        42.8250   20.3230   15.7580 C.3   175  TYR175      0.1605
     85  C         42.7890   19.6040   14.4210 C.2   175  TYR175      0.2264
     86  O         43.5290   18.6150   14.2140 O.2   175  TYR175     -0.2867
     87  CB        44.2890   20.6820   16.1000 C.3   175  TYR175      0.0534
     88  CG        44.8200   21.8740   15.2940 C.ar  175  TYR175     -0.0201
     89  CD1       45.1200   21.7140   13.9430 C.ar  175  TYR175     -0.0009
     90  CD2       45.0360   23.0840   15.8810 C.ar  175  TYR175     -0.0009
     91  CE1       45.6120   22.7530   13.1480 C.ar  175  TYR175      0.0417
     92  CE2       45.5720   24.1470   15.0340 C.ar  175  TYR175      0.0417
     93  CZ        45.8320   23.9350   13.7140 C.ar  175  TYR175      0.1957
     94  OH        46.3080   24.9510   12.8630 O.3   175  TYR175     -0.2866
     95  N         52.8070   25.7030    9.2620 N.3   183  THR183     -0.1203
     96  CA        51.7830   26.7510    9.3070 C.3   183  THR183      0.1994
     97  C         52.0350   27.6770    8.1150 C.2   183  THR183      0.2618
     98  O         53.2300   27.8750    7.7190 O.2   183  THR183     -0.2717
     99  CB        51.8780   27.5350   10.6360 C.3   183  THR183      0.1784
    100  OG1       53.2180   28.0210   10.8460 O.3   183  THR183     -0.2211
    101  CG2       51.6050   26.5510   11.8560 C.3   183  THR183      0.0376
    102  N         50.9840   28.3120    7.5770 N.am  184  GLY184     -0.1942
    103  CA        51.2260   29.3740    6.5780 C.3   184  GLY184      0.2014
    104  C         49.8540   29.8010    6.0710 C.2   184  GLY184      0.2638
    105  O         48.9360   28.9930    6.0480 O.2   184  GLY184     -0.2714
    106  N         49.7430   31.0350    5.6200 N.am  185  ALA185     -0.1977
    107  CA        48.4360   31.5630    5.3350 C.3   185  ALA185      0.1597
    108  C         48.0740   31.3690    3.8730 C.2   185  ALA185      0.2287
    109  O         46.8940   31.4640    3.4660 O.2   185  ALA185     -0.2864
    110  CB        48.4640   33.1220    5.6590 C.3   185  ALA185      0.0319
    111  N         45.3690   25.7060    9.4470 N.3   212  PHE212     -0.1227
    112  CA        46.4700   25.7220    8.4010 C.3   212  PHE212      0.1736
    113  C         45.8720   26.3230    7.1140 C.2   212  PHE212      0.2596
    114  O         44.9230   25.7630    6.5270 O.2   212  PHE212     -0.2718
    115  CB        47.1210   24.3780    8.0210 C.3   212  PHE212      0.0547
    116  CG        48.2700   23.9670    8.9560 C.ar  212  PHE212     -0.0202
    117  CD1       48.1850   24.2280   10.2920 C.ar  212  PHE212     -0.0042
    118  CD2       49.3780   23.3220    8.4510 C.ar  212  PHE212     -0.0042
    119  CE1       49.2070   23.8250   11.1880 C.ar  212  PHE212     -0.0003
    120  CE2       50.4360   22.9390    9.3300 C.ar  212  PHE212     -0.0003
    121  CZ        50.3350   23.1990   10.6720 C.ar  212  PHE212     -0.0000
    122  N         46.4140   27.4730    6.7140 N.am  213  GLY213     -0.1942
    123  CA        45.9380   28.1340    5.4920 C.3   213  GLY213      0.2014
    124  C         44.5750   28.8410    5.6590 C.2   213  GLY213      0.2639
    125  O         44.0000   29.2610    4.6190 O.2   213  GLY213     -0.2714
    126  N         44.0480   29.0410    6.9060 N.am  214  ILE214     -0.1963
    127  CA        42.6980   29.6110    7.0860 C.3   214  ILE214      0.1727
    128  C         42.9080   31.1270    7.0600 C.2   214  ILE214      0.2616
    129  O         43.3420   31.7280    8.0800 O.2   214  ILE214     -0.2715
    130  CB        42.1180   29.1960    8.4750 C.3   214  ILE214      0.0290
    131  CG1       41.8290   27.6770    8.4590 C.3   214  ILE214      0.0022
    132  CG2       40.7860   29.9620    8.7120 C.3   214  ILE214      0.0023
    133  CD1       40.7540   27.2770    7.4560 C.3   214  ILE214      0.0001
    134  N         42.5380   31.7810    5.9430 N.am  215  SER215     -0.1950
    135  CA        42.9160   33.1960    5.7860 C.3   215  SER215      0.1924
    136  C         41.7960   34.1360    5.3000 C.2   215  SER215      0.2314
    137  O         42.0420   35.3020    5.0790 O.2   215  SER215     -0.2863
    138  CB        44.0440   33.2960    4.7910 C.3   215  SER215      0.2116
    139  OG        45.1500   32.5950    5.4220 O.3   215  SER215     -0.2180
    140  N         40.6200   27.9810   13.0310 N.3   232  ILE232     -0.1231
    141  CA        41.6800   28.7850   13.6760 C.3   232  ILE232      0.1692
    142  C         42.4820   29.5250   12.5480 C.2   232  ILE232      0.2593
    143  O         42.8480   28.8850   11.4840 O.2   232  ILE232     -0.2718
    144  CB        42.6460   27.8200   14.4410 C.3   232  ILE232      0.0266
    145  CG1       41.9310   27.2200   15.6500 C.3   232  ILE232      0.0019
    146  CG2       43.9480   28.5810   14.8370 C.3   232  ILE232      0.0020
    147  CD1       42.6920   25.9160   16.1470 C.3   232  ILE232      0.0001
    148  N         42.7740   30.8070   12.7360 N.am  233  SER233     -0.1938
    149  CA        43.5720   31.5400   11.7880 C.3   233  SER233      0.2055
    150  C         44.7450   32.1050   12.5480 C.2   233  SER233      0.2644
    151  O         44.5830   32.8780   13.5400 O.2   233  SER233     -0.2714
    152  CB        42.7550   32.6950   11.1670 C.3   233  SER233      0.2130
    153  OG        43.6130   33.4720   10.2960 O.3   233  SER233     -0.2179
    154  N         45.9450   31.8070   12.0480 N.am  234  GLY234     -0.1939
    155  CA        47.1030   32.3440   12.7100 C.3   234  GLY234      0.2014
    156  C         48.0190   33.0730   11.7820 C.2   234  GLY234      0.2640
    157  O         48.2140   34.2370   12.0070 O.2   234  GLY234     -0.2714
    158  N         48.5610   32.4140   10.7630 N.am  235  SER235     -0.1935
    159  CA        49.4940   33.1310    9.9640 C.3   235  SER235      0.2055
    160  C         48.8620   34.4040    9.4070 C.2   235  SER235      0.2642
    161  O         49.5590   35.4060    9.2520 O.2   235  SER235     -0.2714
    162  CB        49.9490   32.2450    8.7860 C.3   235  SER235      0.2130
    163  OG        50.7370   31.2020    9.3820 O.3   235  SER235     -0.2179
    164  N         47.5830   34.3540    9.0390 N.am  236  ALA236     -0.1977
    165  CA        46.9580   35.5500    8.4490 C.3   236  ALA236      0.1597
    166  C         46.9030   36.6770    9.4630 C.2   236  ALA236      0.2287
    167  O         47.0790   37.8540    9.1040 O.2   236  ALA236     -0.2864
    168  CB        45.5140   35.2610    7.9760 C.3   236  ALA236      0.0319
@<TRIPOS>BOND
     1   109   108    2
     2   108   107    1
     3   125   124    2
     4   138   139    1
     5   138   135    1
     6   137   136    2
     7   136   135    1
     8   107   106    1
     9   107   110    1
    10   123   124    1
    11   123   122    1
    12   106   104   am
    13   124   126   am
    14   135   134    1
    15   134   128   am
    16   105   104    2
    17   104   103    1
    18   114   113    2
    19   103   102    1
    20   122   113   am
    21   126   127    1
    22   128   127    1
    23   128   129    2
    24   127   130    1
    25   113   112    1
    26   133   131    1
    27   102    97   am
    28    98    97    2
    29   168   165    1
    30   115   112    1
    31   115   116    1
    32    97    96    1
    33   112   111    1
    34   165   164    1
    35   165   166    1
    36   118   116   ar
    37   118   120   ar
    38   131   130    1
    39   130   132    1
    40   162   163    1
    41   162   159    1
    42   116   117   ar
    43   164   160   am
    44   167   166    2
    45   161   160    2
    46    95    96    1
    47    96    99    1
    48   120   121   ar
    49   160   159    1
    50   159   158    1
    51    29    28    2
    52    28    27    1
    53   117   119   ar
    54   153   152    1
    55    99   100    1
    56    99   101    1
    57   121   119   ar
    58   158   156   am
    59    34    35    1
    60   152   149    1
    61    24    23    2
    62   143   142    2
    63    27    26    1
    64    27    30    1
    65   156   157    2
    66   156   155    1
    67   149   150    1
    68   149   148    1
    69    23    26   am
    70    23    22    1
    71   154   150   am
    72   154   155    1
    73    22    21    1
    74    22    25    1
    75    35    38    1
    76    35    36    1
    77   150   151    2
    78   142   148   am
    79   142   141    1
    80    30    31    1
    81    39    38    1
    82    39    41    1
    83    94    93    1
    84    38    40    1
    85    36    37    2
    86   140   141    1
    87    91    93   ar
    88    91    89   ar
    89    81    79    1
    90    32    31   ar
    91   141   144    1
    92    93    92   ar
    93    31    33   ar
    94    89    88   ar
    95    86    85    2
    96    85    84    1
    97   144   146    1
    98   144   145    1
    99    77    78    2
   100    77    76    1
   101    79    80    1
   102    79    76    1
   103    82    80    1
   104    92    90   ar
   105    88    90   ar
   106    88    87    1
   107    61    60    1
   108    76    75    1
   109   145   147    1
   110     4     3    2
   111    84    87    1
   112    84    83    1
   113     7     9   ar
   114     7     6   ar
   115     5     6    1
   116     5     2    1
   117     9    11   ar
   118     1     2    1
   119     6     8   ar
   120    73    72    2
   121    60    58   ar
   122    60    59   ar
   123     3     2    1
   124    58    56   ar
   125    11    10   ar
   126    74    71    1
   127     8    10   ar
   128    72    71    1
   129    59    57   ar
   130    71    70    1
   131    68    67    1
   132    56    55   ar
   133    49    47    1
   134    47    48    1
   135    47    46    1
   136    69    67    1
   137    57    55   ar
   138    16    17    1
   139    16    13    1
   140    55    54    1
   141    67    66    1
   142    17    18    1
   143    46    43    1
   144    15    14    2
   145    18    19   ar
   146    18    20   ar
   147    13    12    1
   148    13    14    1
   149    66    63    1
   150    54    51    1
   151    43    44    1
   152    43    42    1
   153    51    50    1
   154    51    52    1
   155    44    45    2
   156    65    64    2
   157    64    63    1
   158    63    62    1
   159    52    53    2
