@<TRIPOS>MOLECULE
tmp/1k3yA00.pdb
 189 182 0 0 0
SMALL
GASTEIGER

@<TRIPOS>ATOM
      1  N         85.4160   32.0490    6.1310 N.3     8  TYR8       -0.1227
      2  CA        85.8200   31.2720    7.2730 C.3     8  TYR8        0.1736
      3  C         87.2020   31.7300    7.7290 C.2     8  TYR8        0.2595
      4  O         87.7970   32.5660    7.0600 O.2     8  TYR8       -0.2718
      5  CB        85.7840   29.7740    6.9430 C.3     8  TYR8        0.0548
      6  CG        85.6880   28.8870    8.1630 C.ar    8  TYR8       -0.0200
      7  CD1       84.5900   28.9890    8.9870 C.ar    8  TYR8       -0.0009
      8  CD2       86.6510   27.9480    8.5190 C.ar    8  TYR8       -0.0009
      9  CE1       84.4190   28.2070   10.1250 C.ar    8  TYR8        0.0417
     10  CE2       86.5120   27.1400    9.6550 C.ar    8  TYR8        0.0417
     11  CZ        85.3930   27.2670   10.4610 C.ar    8  TYR8        0.1957
     12  OH        85.2780   26.4930   11.5730 O.3     8  TYR8       -0.2866
     13  N         87.7130   31.1700    8.8190 N.am    9  PHE9       -0.1976
     14  CA        89.1070   31.4400    9.1350 C.3     9  PHE9        0.1639
     15  C         89.9920   30.4790    8.3470 C.2     9  PHE9        0.2290
     16  O         89.4880   29.5360    7.7040 O.2     9  PHE9       -0.2864
     17  CB        89.3620   31.4450   10.6180 C.3     9  PHE9        0.0560
     18  CG        89.4320   30.1880   11.4380 C.ar    9  PHE9       -0.0200
     19  CD1       90.5880   29.9330   12.1820 C.ar    9  PHE9       -0.0042
     20  CD2       88.3770   29.2930   11.4840 C.ar    9  PHE9       -0.0042
     21  CE1       90.6900   28.8260   12.9670 C.ar    9  PHE9       -0.0003
     22  CE2       88.4780   28.1650   12.2650 C.ar    9  PHE9       -0.0003
     23  CZ        89.6030   27.9250   13.0090 C.ar    9  PHE9       -0.0000
     24  N         88.2990   23.3920   10.2100 N.3    13  GLY13      -0.1210
     25  CA        87.0920   23.5940   10.9790 C.3    13  GLY13       0.1956
     26  C         85.8320   23.0840   10.3070 C.2    13  GLY13       0.2611
     27  O         85.8190   21.9600    9.7770 O.2    13  GLY13      -0.2717
     28  N         84.7990   23.9230   10.3020 N.am   14  ARG14      -0.1979
     29  CA        83.5170   23.5340    9.7450 C.3    14  ARG14       0.1597
     30  C         83.3490   23.8500    8.2600 C.2    14  ARG14       0.2287
     31  O         82.2730   23.5850    7.7320 O.2    14  ARG14      -0.2864
     32  CB        82.3910   24.2330   10.5460 C.3    14  ARG14       0.0334
     33  CG        82.3310   23.7680   11.9680 C.3    14  ARG14       0.0492
     34  CD        81.0000   24.1520   12.6190 C.3    14  ARG14       0.2205
     35  NE        80.9710   23.6560   14.0010 N.pl3  14  ARG14      -0.0865
     36  CZ        80.7490   22.4060   14.3640 C.cat  14  ARG14       0.5346
     37  NH1       80.5140   21.5060   13.4590 N.pl3  14  ARG14       0.1354
     38  NH2       80.7710   22.0530   15.6490 N.pl3  14  ARG14       0.1354
     39  N         85.1070   39.1540   11.9720 N.3    40  LEU40      -0.1245
     40  CA        83.8230   38.4590   12.1240 C.3    40  LEU40       0.1561
     41  C         82.7150   39.4480   12.4610 C.2    40  LEU40       0.2260
     42  O         81.6210   39.3600   11.9000 O.2    40  LEU40      -0.2867
     43  CB        83.9170   37.3660   13.1610 C.3    40  LEU40       0.0270
     44  CG        82.6510   36.5620   13.4220 C.3    40  LEU40       0.0019
     45  CD1       82.2430   35.7670   12.1930 C.3    40  LEU40       0.0001
     46  CD2       82.9010   35.6340   14.5990 C.3    40  LEU40       0.0001
     47  N         79.0820   40.3070   10.6010 N.3    44  ARG44      -0.1245
     48  CA        77.8480   40.3850   11.3790 C.3    44  ARG44       0.1563
     49  C         77.1630   41.7290   11.1760 C.2    44  ARG44       0.2260
     50  O         75.9600   41.7650   10.9050 O.2    44  ARG44      -0.2867
     51  CB        78.1250   40.1840   12.8770 C.3    44  ARG44       0.0307
     52  CG        78.5980   38.7860   13.2270 C.3    44  ARG44       0.0489
     53  CD        79.1170   38.7410   14.6670 C.3    44  ARG44       0.2205
     54  NE        79.2900   37.3710   15.1380 N.pl3  44  ARG44      -0.0865
     55  CZ        79.9850   37.0310   16.2010 C.cat  44  ARG44       0.5346
     56  NH1       80.6360   37.9620   16.9030 N.pl3  44  ARG44       0.1354
     57  NH2       80.0380   35.7630   16.5530 N.pl3  44  ARG44       0.1354
     58  N         74.7790   34.9840   12.9570 N.3    52  GLN52      -0.1231
     59  CA        75.9790   35.6470   13.4690 C.3    52  GLN52       0.1698
     60  C         77.1600   34.6980   13.5140 C.2    52  GLN52       0.2592
     61  O         78.1540   34.9450   14.2160 O.2    52  GLN52      -0.2718
     62  CB        75.7470   36.3200   14.8210 C.3    52  GLN52       0.0381
     63  CG        74.4270   37.0960   14.8790 C.3    52  GLN52       0.0905
     64  CD        74.1240   37.9350   13.6630 C.2    52  GLN52       0.2608
     65  OE1       74.9820   38.5010   12.9520 O.2    52  GLN52      -0.2717
     66  NE2       72.8050   38.0440   13.3590 N.am   52  GLN52      -0.0878
     67  N         77.1260   33.6080   12.7430 N.am   53  GLN53      -0.1966
     68  CA        78.1530   32.6000   12.6460 C.3    53  GLN53       0.1733
     69  C         78.6310   32.3910   11.2050 C.2    53  GLN53       0.2616
     70  O         77.9120   32.6530   10.2640 O.2    53  GLN53      -0.2715
     71  CB        77.6630   31.2290   13.1430 C.3    53  GLN53       0.0408
     72  CG        77.0950   31.2430   14.5620 C.3    53  GLN53       0.0908
     73  CD        76.4380   29.9280   14.9080 C.2    53  GLN53       0.2608
     74  OE1       75.5930   29.4550   14.1360 O.2    53  GLN53      -0.2717
     75  NE2       76.8790   29.3850   16.0310 N.am   53  GLN53      -0.0878
     76  N         79.8320   31.8360   11.1520 N.am   54  VAL54      -0.1964
     77  CA        80.3660   31.2360    9.9500 C.3    54  VAL54       0.1712
     78  C         80.5150   29.7190   10.1570 C.2    54  VAL54       0.2458
     79  O         80.5640   29.2860   11.3290 O.2    54  VAL54      -0.2730
     80  CB        81.6510   31.8890    9.4370 C.3    54  VAL54       0.0289
     81  CG1       81.3760   33.2810    8.8870 C.3    54  VAL54       0.0023
     82  CG2       82.7070   31.8790   10.5270 C.3    54  VAL54       0.0023
     83  N         80.5950   28.8550    9.1350 N.am   55  PRO55      -0.2727
     84  CA        80.6840   29.1070    7.7040 C.3    55  PRO55       0.1402
     85  C         79.5690   29.9390    7.0880 C.2    55  PRO55       0.2269
     86  O         78.4150   29.8420    7.4920 O.2    55  PRO55      -0.2865
     87  CB        80.6090   27.6980    7.1130 C.3    55  PRO55       0.0296
     88  CG        81.1330   26.7770    8.1560 C.3    55  PRO55       0.0237
     89  CD        80.6910   27.3940    9.4170 C.3    55  PRO55       0.0939
     90  N         75.0730   27.8200    7.7770 N.3    66  GLN66      -0.1231
     91  CA        74.8360   26.4840    8.2840 C.3    66  GLN66       0.1698
     92  C         75.4600   25.4670    7.3310 C.2    66  GLN66       0.2593
     93  O         75.0660   25.3150    6.1810 O.2    66  GLN66      -0.2718
     94  CB        73.3420   26.1720    8.4620 C.3    66  GLN66       0.0381
     95  CG        72.7920   26.9350    9.6780 C.3    66  GLN66       0.0905
     96  CD        73.2420   26.2990   10.9900 C.2    66  GLN66       0.2608
     97  OE1       73.8460   25.2210   11.0150 O.2    66  GLN66      -0.2717
     98  NE2       72.9450   26.9790   12.0720 N.am   66  GLN66      -0.0878
     99  N         76.4700   24.7600    7.8020 N.am   67  THR67      -0.1939
    100  CA        77.2260   23.7690    7.0620 C.3    67  THR67       0.2028
    101  C         76.3100   22.8700    6.2090 C.2    67  THR67       0.2642
    102  O         76.5200   22.6830    5.0130 O.2    67  THR67      -0.2714
    103  CB        78.0510   22.8560    7.9930 C.3    67  THR67       0.1808
    104  OG1       78.9280   23.6150    8.8210 O.3    67  THR67      -0.2208
    105  CG2       78.8800   21.8830    7.1860 C.3    67  THR67       0.0379
    106  N         75.2710   22.3160    6.8090 N.am   68  ARG68      -0.1977
    107  CA        74.4460   21.3740    6.0550 C.3    68  ARG68       0.1597
    108  C         73.6210   22.0430    4.9600 C.2    68  ARG68       0.2287
    109  O         73.3620   21.4200    3.9620 O.2    68  ARG68      -0.2864
    110  CB        73.5020   20.6060    7.0030 C.3    68  ARG68       0.0334
    111  CG        74.2850   19.6470    7.8910 C.3    68  ARG68       0.0492
    112  CD        73.3320   18.8810    8.8010 C.3    68  ARG68       0.2205
    113  NE        73.9230   17.8060    9.5600 N.pl3  68  ARG68      -0.0865
    114  CZ        74.5650   17.9160   10.7100 C.cat  68  ARG68       0.5346
    115  NH1       74.7410   19.1130   11.2460 N.pl3  68  ARG68       0.1354
    116  NH2       75.0480   16.8770   11.3230 N.pl3  68  ARG68       0.1354
    117  N         86.5570   16.5690   15.3460 N.3   106  LEU106     -0.1231
    118  CA        86.7480   18.0300   15.2360 C.3   106  LEU106      0.1693
    119  C         86.9240   18.7110   16.5620 C.2   106  LEU106      0.2591
    120  O         87.7540   19.5970   16.7330 O.2   106  LEU106     -0.2718
    121  CB        85.5320   18.6390   14.5290 C.3   106  LEU106      0.0284
    122  CG        85.4370   20.1690   14.5220 C.3   106  LEU106      0.0019
    123  CD1       86.4890   20.8220   13.6300 C.3   106  LEU106      0.0001
    124  CD2       84.0590   20.6540   14.0830 C.3   106  LEU106      0.0001
    125  N         86.1050   18.2380   17.5050 N.am  107  LEU107     -0.1980
    126  CA        86.0800   18.9020   18.7880 C.3   107  LEU107      0.1596
    127  C         87.0460   18.3020   19.8020 C.2   107  LEU107      0.2287
    128  O         87.1640   18.8850   20.8790 O.2   107  LEU107     -0.2864
    129  CB        84.6410   18.8380   19.2940 C.3   107  LEU107      0.0297
    130  CG        83.5800   19.5970   18.5150 C.3   107  LEU107      0.0022
    131  CD1       82.2280   19.3620   19.1790 C.3   107  LEU107      0.0001
    132  CD2       83.8840   21.0900   18.4430 C.3   107  LEU107      0.0001
    133  N         90.3070   18.4540   20.2800 N.3   109  PRO109     -0.2102
    134  CA        91.2410   19.3870   20.9240 C.3   109  PRO109      0.1504
    135  C         90.6270   20.4410   21.8450 C.2   109  PRO109      0.2575
    136  O         91.3860   21.0830   22.6020 O.2   109  PRO109     -0.2718
    137  CB        91.8650   20.1050   19.7390 C.3   109  PRO109      0.0282
    138  CG        90.9150   19.9250   18.6100 C.3   109  PRO109      0.0208
    139  CD        90.3040   18.5680   18.8110 C.3   109  PRO109      0.0893
    140  N         89.3060   20.6300   21.8760 N.am  110  VAL110     -0.1980
    141  CA        88.7490   21.5490   22.8960 C.3   110  VAL110      0.1595
    142  C         88.2070   20.7940   24.1040 C.2   110  VAL110      0.2287
    143  O         87.5780   21.2830   25.0540 O.2   110  VAL110     -0.2864
    144  CB        87.7340   22.5020   22.2530 C.3   110  VAL110      0.0276
    145  CG1       88.4020   23.2390   21.0770 C.3   110  VAL110      0.0022
    146  CG2       86.4860   21.8120   21.7580 C.3   110  VAL110      0.0022
    147  N         94.8080   21.2590   12.1940 N.3   207  MET207     -0.1245
    148  CA        94.7870   22.4720   13.0250 C.3   207  MET207      0.1570
    149  C         95.7950   22.3070   14.1550 C.2   207  MET207      0.2261
    150  O         95.7390   21.3530   14.9200 O.2   207  MET207     -0.2867
    151  CB        93.3870   22.7530   13.5470 C.3   207  MET207      0.0387
    152  CG        93.2550   23.9980   14.4180 C.3   207  MET207      0.0595
    153  SD        91.5700   24.2880   14.9350 S.3   207  MET207     -0.1393
    154  CE        91.3240   22.8000   15.9320 C.3   207  MET207      0.0692
    155  N         94.2510   26.8690   16.7110 N.3   212  LEU212     -0.1245
    156  CA        93.1960   26.7610   17.7140 C.3   212  LEU212      0.1561
    157  C         93.1500   27.9940   18.6040 C.2   212  LEU212      0.2260
    158  O         92.0820   28.4930   18.8900 O.2   212  LEU212     -0.2867
    159  CB        93.4050   25.4940   18.5390 C.3   212  LEU212      0.0270
    160  CG        92.4150   25.3090   19.6970 C.3   212  LEU212      0.0019
    161  CD1       90.9920   25.3540   19.1870 C.3   212  LEU212      0.0001
    162  CD2       92.7360   24.0060   20.4220 C.3   212  LEU212      0.0001
    163  N         91.3590   30.5130   16.6500 N.3   215  ALA215     -0.1245
    164  CA        89.9230   30.2940   16.6680 C.3   215  ALA215      0.1562
    165  C         89.3000   30.8160   17.9580 C.2   215  ALA215      0.2260
    166  O         88.2150   31.3830   17.9490 O.2   215  ALA215     -0.2867
    167  CB        89.5900   28.8240   16.5360 C.3   215  ALA215      0.0290
    168  N         86.3880   33.6050   17.6160 N.3   219  PHE219     -0.1241
    169  CA        85.0460   33.1100   17.9100 C.3   219  PHE219      0.1605
    170  C         84.6240   33.2960   19.3790 C.2   219  PHE219      0.2264
    171  O         83.4790   32.9970   19.7440 O.2   219  PHE219     -0.2867
    172  CB        84.8980   31.6340   17.4920 C.3   219  PHE219      0.0534
    173  CG        85.0890   31.4910   15.9770 C.ar  219  PHE219     -0.0203
    174  CD1       84.2330   32.1030   15.0880 C.ar  219  PHE219     -0.0042
    175  CD2       86.1450   30.7440   15.4480 C.ar  219  PHE219     -0.0042
    176  CE1       84.4020   31.9860   13.7060 C.ar  219  PHE219     -0.0003
    177  CE2       86.3520   30.6210   14.0970 C.ar  219  PHE219     -0.0003
    178  CZ        85.4770   31.2560   13.2150 C.ar  219  PHE219     -0.0000
    179  N         85.7890   31.9920   22.3790 N.3   221  PHE221     -0.1241
    180  CA        85.4970   30.8540   23.2400 C.3   221  PHE221      0.1605
    181  C         86.7480   30.4160   24.0000 C.2   221  PHE221      0.2264
    182  O         87.8080   31.0410   23.8340 O.2   221  PHE221     -0.2867
    183  CB        84.9070   29.7170   22.4180 C.3   221  PHE221      0.0534
    184  CG        85.8140   28.9720   21.4570 C.ar  221  PHE221     -0.0203
    185  CD1       85.8440   29.3200   20.1220 C.ar  221  PHE221     -0.0042
    186  CD2       86.6070   27.9080   21.8740 C.ar  221  PHE221     -0.0042
    187  CE1       86.6130   28.6810   19.1970 C.ar  221  PHE221     -0.0003
    188  CE2       87.4000   27.2740   20.9380 C.ar  221  PHE221     -0.0003
    189  CZ        87.3870   27.6340   19.6000 C.ar  221  PHE221     -0.0000
@<TRIPOS>BOND
     1   109   108    2
     2   108   107    1
     3   102   101    2
     4   107   106    1
     5   107   110    1
     6     1     2    1
     7    93    92    2
     8   101   106   am
     9   101   100    1
    10     5     2    1
    11     5     6    1
    12   110   111    1
    13     4     3    2
    14   100    99    1
    15   100   103    1
    16    85    86    2
    17    85    84    1
    18    87    84    1
    19    87    88    1
    20   105   103    1
    21     2     3    1
    22    92    99   am
    23    92    91    1
    24    16    15    2
    25    84    83    1
    26     3    13   am
    27    31    30    2
    28    90    91    1
    29   111   112    1
    30   103   104    1
    31    88    89    1
    32     6     8   ar
    33     6     7   ar
    34    30    29    1
    35    91    94    1
    36    15    14    1
    37    94    95    1
    38     8    10   ar
    39   112   113    1
    40    13    14    1
    41    81    80    1
    42     7     9   ar
    43    14    17    1
    44    83    89    1
    45    83    78   am
    46    80    77    1
    47    80    82    1
    48   113   114    2
    49    10    11   ar
    50    95    96    1
    51    29    28    1
    52    29    32    1
    53    27    26    2
    54    77    78    1
    55    77    76    1
    56     9    11   ar
    57    78    79    2
    58    24    25    1
    59    70    69    2
    60    28    26   am
    61    26    25    1
    62    11    12    1
    63    32    33    1
    64    47    48    1
    65    17    18    1
    66   114   115    1
    67   114   116    1
    68    50    49    2
    69    96    97    2
    70    96    98   am
    71    76    69   am
    72    49    48    1
    73    69    68    1
    74    48    51    1
    75    18    20   ar
    76    18    19   ar
    77    20    22   ar
    78    42    41    2
    79    33    34    1
    80    39    40    1
    81    40    41    1
    82    40    43    1
    83    19    21   ar
    84    45    44    1
    85   147   148    1
    86    22    23   ar
    87    34    35    1
    88    68    67    1
    89    68    71    1
    90    67    60   am
    91    51    52    1
    92    65    64    2
    93    58    59    1
    94    21    23   ar
    95   148   151    1
    96   148   149    1
    97    71    72    1
    98    43    44    1
    99   178   176   ar
   100   178   177   ar
   101    52    53    1
   102    66    64   am
   103    44    46    1
   104    37    36    1
   105    59    60    1
   106    59    62    1
   107    60    61    2
   108   151   152    1
   109   123   122    1
   110    64    63    1
   111   176   174   ar
   112    35    36    2
   113   124   122    1
   114   177   175   ar
   115    74    73    2
   116   149   150    2
   117    36    38    1
   118   152   153    1
   119   122   121    1
   120   121   118    1
   121    72    73    1
   122    53    54    1
   123    62    63    1
   124    73    75   am
   125   153   154    1
   126   174   173   ar
   127    54    55    2
   128   118   117    1
   129   118   119    1
   130   175   173   ar
   131   173   172    1
   132    55    57    1
   133    55    56    1
   134   167   164    1
   135   119   120    2
   136   119   125   am
   137   163   164    1
   138   164   165    1
   139   155   156    1
   140   172   169    1
   141   125   126    1
   142   168   169    1
   143   156   159    1
   144   156   157    1
   145   169   170    1
   146   166   165    2
   147   132   130    1
   148   130   131    1
   149   130   129    1
   150   159   160    1
   151   157   158    2
   152   138   139    1
   153   138   137    1
   154   126   129    1
   155   126   127    1
   156   139   133    1
   157   161   160    1
   158   187   189   ar
   159   187   185   ar
   160   170   171    2
   161   189   188   ar
   162   160   162    1
   163   137   134    1
   164   127   128    2
   165   185   184   ar
   166   133   134    1
   167   134   135    1
   168   188   186   ar
   169   145   144    1
   170   184   186   ar
   171   184   183    1
   172   146   144    1
   173   135   140   am
   174   135   136    2
   175   140   141    1
   176   144   141    1
   177   179   180    1
   178   183   180    1
   179   141   142    1
   180   180   181    1
   181   182   181    2
   182   142   143    2
