@<TRIPOS>MOLECULE
tmp/1k4gA00.pdb
 170 160 0 0 0
SMALL
GASTEIGER

@<TRIPOS>ATOM
      1  N         10.2360    9.6620   11.7760 N.3    35  VAL35      -0.1245
      2  CA         9.5190   10.6220   12.6080 C.3    35  VAL35       0.1561
      3  C          8.0540   10.8530   12.2450 C.2    35  VAL35       0.2260
      4  O          7.7150   11.1260   11.0910 O.2    35  VAL35      -0.2867
      5  CB        10.2560   11.9890   12.6680 C.3    35  VAL35       0.0252
      6  CG1        9.5200   12.9450   13.6030 C.3    35  VAL35       0.0019
      7  CG2       11.6810   11.8000   13.1520 C.3    35  VAL35       0.0019
      8  N          9.3210    7.5350   16.0190 N.3    58  LEU58      -0.1245
      9  CA         9.3180    8.5830   17.0340 C.3    58  LEU58       0.1561
     10  C          8.0210    9.4050   16.9320 C.2    58  LEU58       0.2260
     11  O          7.5030    9.6370   15.8410 O.2    58  LEU58      -0.2867
     12  CB        10.5590    9.4820   16.8940 C.3    58  LEU58       0.0270
     13  CG        10.7400   10.6290   17.9100 C.3    58  LEU58       0.0019
     14  CD1       12.2080   10.8830   18.1800 C.3    58  LEU58       0.0001
     15  CD2       10.0710   11.9050   17.4170 C.3    58  LEU58       0.0001
     16  N          6.1460   13.0150   17.9720 N.3    60  ASN60      -0.1240
     17  CA         6.3660   14.3910   18.4250 C.3    60  ASN60       0.1653
     18  C          5.3640   14.8050   19.5050 C.2    60  ASN60       0.2266
     19  O          4.2270   15.1800   19.2020 O.2    60  ASN60      -0.2867
     20  CB         6.2950   15.3830   17.2510 C.3    60  ASN60       0.1155
     21  CG         7.5870   15.4410   16.4370 C.2    60  ASN60       0.2627
     22  OD1        7.5650   15.7830   15.2540 O.2    60  ASN60      -0.2716
     23  ND2        8.7190   15.1360   17.0720 N.am   60  ASN60      -0.0877
     24  N          9.5260   12.0960   22.3750 N.3    92  ASP92      -0.1225
     25  CA        10.4410   13.0650   22.9780 C.3    92  ASP92       0.1805
     26  C          9.6880   13.7820   24.1070 C.2    92  ASP92       0.2598
     27  O          8.4740   13.6320   24.2370 O.2    92  ASP92      -0.2718
     28  CB        11.0190   14.0560   21.9490 C.3    92  ASP92       0.1424
     29  CG         9.9610   14.6790   21.0610 C.2    92  ASP92       0.3668
     30  OD1        8.7970   14.8270   21.4960 O.co2  92  ASP92      -0.2456
     31  OD2       10.3030   15.0290   19.9130 O.co2  92  ASP92      -0.2456
     32  N         10.3990   14.5480   24.9240 N.am   93  SER93      -0.1938
     33  CA         9.7700   15.2310   26.0510 C.3    93  SER93       0.2055
     34  C          8.9540   16.4710   25.6780 C.2    93  SER93       0.2644
     35  O          8.0870   16.9040   26.4410 O.2    93  SER93      -0.2714
     36  CB        10.8280   15.6070   27.0740 C.3    93  SER93       0.2130
     37  OG        11.6540   16.6340   26.5720 O.3    93  SER93      -0.2179
     38  N          9.2540   17.0490   24.5180 N.am   94  GLY94      -0.1939
     39  CA         8.5440   18.2340   24.0680 C.3    94  GLY94       0.2014
     40  C          9.2500   19.5280   24.4380 C.2    94  GLY94       0.2639
     41  O          8.8960   20.5920   23.9320 O.2    94  GLY94      -0.2714
     42  N         10.2660   19.4330   25.2930 N.am   95  GLY95      -0.1939
     43  CA        11.0050   20.6050   25.7280 C.3    95  GLY95       0.2014
     44  C         11.7520   21.3430   24.6330 C.2    95  GLY95       0.2639
     45  O         11.7680   22.5770   24.6190 O.2    95  GLY95      -0.2714
     46  N         12.3680   20.5950   23.7190 N.am   96  TYR96      -0.1959
     47  CA        13.1230   21.1910   22.6200 C.3    96  TYR96       0.1771
     48  C         12.2200   21.9730   21.6820 C.2    96  TYR96       0.2619
     49  O         12.4670   23.1490   21.4180 O.2    96  TYR96      -0.2715
     50  CB        13.8780   20.1160   21.8310 C.3    96  TYR96       0.0574
     51  CG        14.5430   20.6270   20.5640 C.ar   96  TYR96      -0.0198
     52  CD1       15.8780   21.0420   20.5700 C.ar   96  TYR96      -0.0009
     53  CD2       13.8380   20.6880   19.3540 C.ar   96  TYR96      -0.0009
     54  CE1       16.4960   21.5040   19.4020 C.ar   96  TYR96       0.0417
     55  CE2       14.4430   21.1490   18.1830 C.ar   96  TYR96       0.0417
     56  CZ        15.7720   21.5530   18.2120 C.ar   96  TYR96       0.1957
     57  OH        16.3770   21.9930   17.0530 O.3    96  TYR96      -0.2866
     58  N         11.1860   21.3120   21.1710 N.am   97  GLN97      -0.1977
     59  CA        10.2570   21.9540   20.2510 C.3    97  GLN97       0.1601
     60  C          9.5080   23.1250   20.8840 C.2    97  GLN97       0.2287
     61  O          8.9320   23.9450   20.1720 O.2    97  GLN97      -0.2864
     62  CB         9.2730   20.9380   19.6690 C.3    97  GLN97       0.0394
     63  CG         9.9310   19.8380   18.8500 C.3    97  GLN97       0.0908
     64  CD         8.9550   19.1570   17.9090 C.2    97  GLN97       0.2608
     65  OE1        7.9970   18.5100   18.3400 O.2    97  GLN97      -0.2717
     66  NE2        9.1860   19.3130   16.6090 N.am   97  GLN97      -0.0878
     67  N         14.0910   17.7810   29.7220 N.3   146  ASP146     -0.1239
     68  CA        15.2880   18.5600   29.9590 C.3   146  ASP146      0.1674
     69  C         15.2510   19.9780   29.3980 C.2   146  ASP146      0.2266
     70  O         14.2590   20.4150   28.8020 O.2   146  ASP146     -0.2867
     71  CB        16.5160   17.8180   29.4050 C.3   146  ASP146      0.1410
     72  CG        16.5040   17.6870   27.8690 C.2   146  ASP146      0.3668
     73  OD1       15.4460   17.8780   27.2190 O.co2 146  ASP146     -0.2456
     74  OD2       17.5700   17.3500   27.3050 O.co2 146  ASP146     -0.2456
     75  N         17.4250   22.1080   26.9080 N.3   148  CYS148     -0.1235
     76  CA        18.4970   22.1100   25.9160 C.3   148  CYS148      0.1677
     77  C         19.2830   23.4250   25.9710 C.2   148  CYS148      0.2270
     78  O         18.7480   24.4790   26.3310 O.2   148  CYS148     -0.2867
     79  CB        17.9510   21.8440   24.5030 C.3   148  CYS148      0.0956
     80  SG        19.1980   21.2300   23.3240 S.3   148  CYS148     -0.0801
     81  N         18.7450   12.0670   29.5000 N.3   191  ILE191     -0.1245
     82  CA        19.4660   12.8180   28.4710 C.3   191  ILE191      0.1561
     83  C         20.6780   13.5820   29.0020 C.2   191  ILE191      0.2260
     84  O         20.5590   14.4210   29.9000 O.2   191  ILE191     -0.2867
     85  CB        18.5440   13.8170   27.7420 C.3   191  ILE191      0.0252
     86  CG1       17.2850   13.1100   27.2230 C.3   191  ILE191      0.0019
     87  CG2       19.3050   14.4750   26.5930 C.3   191  ILE191      0.0019
     88  CD1       16.2380   14.0470   26.6500 C.3   191  ILE191      0.0001
     89  N         23.6040   16.3110   28.9470 N.3   193  GLN193     -0.1245
     90  CA        23.8160   17.6770   28.4650 C.3   193  GLN193      0.1566
     91  C         25.2450   18.0790   28.8330 C.2   193  GLN193      0.2260
     92  O         26.0230   17.2470   29.3040 O.2   193  GLN193     -0.2867
     93  CB        22.8040   18.6570   29.0850 C.3   193  GLN193      0.0367
     94  CG        21.3440   18.4650   28.6510 C.3   193  GLN193      0.0905
     95  CD        21.1340   18.6060   27.1450 C.2   193  GLN193      0.2608
     96  OE1       21.9140   19.2440   26.4430 O.2   193  GLN193     -0.2717
     97  NE2       20.0710   17.9920   26.6470 N.am  193  GLN193     -0.0878
     98  N         22.2440   14.5400   24.3040 N.3   219  GLY219     -0.1210
     99  CA        21.5160   15.7000   23.8320 C.3   219  GLY219      0.1956
    100  C         22.4390   16.8870   23.6500 C.2   219  GLY219      0.2612
    101  O         23.6220   16.8210   23.9850 O.2   219  GLY219     -0.2717
    102  N         21.9060   17.9580   23.0730 N.am  220  GLY220     -0.1942
    103  CA        22.6980   19.1580   22.8720 C.3   220  GLY220      0.2014
    104  C         23.6280   19.1680   21.6730 C.2   220  GLY220      0.2639
    105  O         24.4750   20.0550   21.5620 O.2   220  GLY220     -0.2714
    106  N         23.5030   18.1760   20.7960 N.am  221  LEU221     -0.1963
    107  CA        24.3320   18.1130   19.6020 C.3   221  LEU221      0.1728
    108  C         23.4550   18.3100   18.3760 C.2   221  LEU221      0.2616
    109  O         22.2280   18.3170   18.4820 O.2   221  LEU221     -0.2715
    110  CB        25.1090   16.7970   19.5390 C.3   221  LEU221      0.0311
    111  CG        26.1870   16.6580   20.6250 C.3   221  LEU221      0.0022
    112  CD1       26.9590   15.3600   20.4470 C.3   221  LEU221      0.0001
    113  CD2       27.1410   17.8470   20.5770 C.3   221  LEU221      0.0001
    114  N         24.0880   18.4540   17.2150 N.am  222  ALA222     -0.1963
    115  CA        23.3830   18.7070   15.9560 C.3   222  ALA222      0.1728
    116  C         22.5750   20.0050   16.1030 C.2   222  ALA222      0.2616
    117  O         21.4320   20.1060   15.6510 O.2   222  ALA222     -0.2715
    118  CB        22.4650   17.5350   15.5920 C.3   222  ALA222      0.0334
    119  N         23.1880   20.9830   16.7690 N.am  223  VAL223     -0.1977
    120  CA        22.5780   22.2890   17.0140 C.3   223  VAL223      0.1596
    121  C         23.4000   23.4250   16.3910 C.2   223  VAL223      0.2287
    122  O         23.3870   24.5580   16.8810 O.2   223  VAL223     -0.2864
    123  CB        22.3840   22.5510   18.5340 C.3   223  VAL223      0.0276
    124  CG1       21.3720   21.5710   19.1100 C.3   223  VAL223      0.0022
    125  CG2       23.7110   22.4210   19.2690 C.3   223  VAL223      0.0022
    126  N         21.5140    6.8920   22.5720 N.3   248  TYR248     -0.1241
    127  CA        20.6860    7.5300   21.5650 C.3   248  TYR248      0.1605
    128  C         21.1520    8.9420   21.2310 C.2   248  TYR248      0.2264
    129  O         21.2060    9.8010   22.1030 O.2   248  TYR248     -0.2867
    130  CB        19.2490    7.5200   22.1020 C.3   248  TYR248      0.0534
    131  CG        18.1980    8.3300   21.3790 C.ar  248  TYR248     -0.0201
    132  CD1       18.2910    8.6200   20.0090 C.ar  248  TYR248     -0.0009
    133  CD2       17.0770    8.7890   22.0770 C.ar  248  TYR248     -0.0009
    134  CE1       17.2760    9.3550   19.3600 C.ar  248  TYR248      0.0417
    135  CE2       16.0720    9.5140   21.4460 C.ar  248  TYR248      0.0417
    136  CZ        16.1720    9.7950   20.0960 C.ar  248  TYR248      0.1957
    137  OH        15.1570   10.5240   19.5040 O.3   248  TYR248     -0.2866
    138  N         20.1880   12.1620   19.6200 N.3   250  MET250     -0.1230
    139  CA        18.9890   12.8880   19.2030 C.3   250  MET250      0.1702
    140  C         19.1530   13.8680   18.0400 C.2   250  MET250      0.2592
    141  O         20.1470   14.6000   17.9580 O.2   250  MET250     -0.2718
    142  CB        18.3890   13.6170   20.4120 C.3   250  MET250      0.0401
    143  CG        18.2380   12.7430   21.6590 C.3   250  MET250      0.0596
    144  SD        17.3460   13.5420   23.0060 S.3   250  MET250     -0.1393
    145  CE        15.6250   13.2880   22.4420 C.3   250  MET250      0.0692
    146  N         18.1750   13.8450   17.1360 N.am  251  GLY251     -0.1957
    147  CA        18.1650   14.7400   15.9900 C.3   251  GLY251      0.1869
    148  C         19.3090   14.6650   14.9960 C.2   251  GLY251      0.2309
    149  O         19.6850   15.6750   14.4030 O.2   251  GLY251     -0.2863
    150  N         17.2110    9.1950   14.9200 N.3   270  ASP270     -0.1225
    151  CA        15.9060    9.6550   14.4620 C.3   270  ASP270      0.1805
    152  C         16.1720   10.8930   13.6240 C.2   270  ASP270      0.2598
    153  O         17.1880   11.5590   13.8250 O.2   270  ASP270     -0.2718
    154  CB        14.9990   10.0340   15.6430 C.3   270  ASP270      0.1424
    155  CG        15.3070   11.4210   16.2080 C.2   270  ASP270      0.3668
    156  OD1       16.1060   11.5320   17.1620 O.co2 270  ASP270     -0.2456
    157  OD2       14.7370   12.4170   15.6930 O.co2 270  ASP270     -0.2456
    158  N         15.2690   11.2170   12.7040 N.am  271  CYS271     -0.1956
    159  CA        15.4410   12.4300   11.9110 C.3   271  CYS271      0.1843
    160  C         14.3360   12.6930   10.9200 C.2   271  CYS271      0.2625
    161  O         13.7800   11.7670   10.3310 O.2   271  CYS271     -0.2714
    162  CB        16.7840   12.4440   11.1770 C.3   271  CYS271      0.0997
    163  SG        17.3860   14.1320   10.8340 S.3   271  CYS271     -0.0797
    164  N         14.0340   13.9770   10.7480 N.am  272  VAL272     -0.1977
    165  CA        13.0070   14.4230    9.8140 C.3   272  VAL272      0.1596
    166  C         13.6190   14.6340    8.4320 C.2   272  VAL272      0.2287
    167  O         12.9130   14.9680    7.4860 O.2   272  VAL272     -0.2864
    168  CB        12.3310   15.7460   10.2720 C.3   272  VAL272      0.0276
    169  CG1       11.8870   15.6360   11.7240 C.3   272  VAL272      0.0022
    170  CG2       13.2740   16.9340   10.0750 C.3   272  VAL272      0.0022
@<TRIPOS>BOND
     1   167   166    2
     2   166   165    1
     3   165   168    1
     4   165   164    1
     5   170   168    1
     6   168   169    1
     7   161   160    2
     8   164   160   am
     9   163   162    1
    10   160   159    1
    11     4     3    2
    12   162   159    1
    13     1     2    1
    14   159   158    1
    15     3     2    1
    16     2     5    1
    17     5     7    1
    18     5     6    1
    19   158   152   am
    20   152   153    2
    21   152   151    1
    22   149   148    2
    23   151   150    1
    24   151   154    1
    25   148   147    1
    26    22    21    2
    27   118   115    1
    28   154   155    1
    29   117   116    2
    30   157   155   ar
    31    11    10    2
    32   115   116    1
    33   115   114    1
    34   147   146    1
    35     8     9    1
    36   116   119   am
    37   155   156   ar
    38   121   122    2
    39   121   120    1
    40    21    23   am
    41    21    20    1
    42    66    64   am
    43   119   120    1
    44    12     9    1
    45    12    13    1
    46    10     9    1
    47   120   123    1
    48    57    56    1
    49   146   140   am
    50   114   108   am
    51    20    17    1
    52    15    13    1
    53    64    65    2
    54    64    63    1
    55    13    14    1
    56   141   140    2
    57    16    17    1
    58   140   139    1
    59    55    56   ar
    60    55    53   ar
    61    56    54   ar
    62   108   109    2
    63   108   107    1
    64    17    18    1
    65   123   124    1
    66   123   125    1
    67    63    62    1
    68    19    18    2
    69   139   138    1
    70   139   142    1
    71    53    51   ar
    72   134   132   ar
    73   134   136   ar
    74    54    52   ar
    75   137   136    1
    76   110   107    1
    77   110   111    1
    78   107   106    1
    79    62    59    1
    80    31    29   ar
    81   132   131   ar
    82   136   135   ar
    83    61    60    2
    84    59    60    1
    85    59    58    1
    86   142   143    1
    87   112   111    1
    88    51    52   ar
    89    51    50    1
    90   113   111    1
    91   106   104   am
    92    29    30   ar
    93    29    28    1
    94    58    48   am
    95   128   127    1
    96   128   129    2
    97   131   133   ar
    98   131   130    1
    99    49    48    2
   100   135   133   ar
   101   105   104    2
   102   127   130    1
   103   127   126    1
   104   143   144    1
   105   104   103    1
   106    48    47    1
   107    50    47    1
   108    28    25    1
   109    24    25    1
   110   145   144    1
   111    47    46    1
   112   103   102    1
   113    25    26    1
   114   102   100   am
   115    80    79    1
   116   100    99    1
   117   100   101    2
   118    46    44   am
   119    99    98    1
   120    41    40    2
   121    39    40    1
   122    39    38    1
   123    26    27    2
   124    26    32   am
   125    40    42   am
   126    79    76    1
   127    38    34   am
   128    45    44    2
   129    44    43    1
   130    32    33    1
   131    42    43    1
   132    34    33    1
   133    34    35    2
   134    76    77    1
   135    76    75    1
   136    77    78    2
   137    33    36    1
   138    96    95    2
   139    37    36    1
   140    87    85    1
   141    97    95   am
   142    88    86    1
   143    95    94    1
   144    73    72   ar
   145    86    85    1
   146    74    72   ar
   147    85    82    1
   148    72    71    1
   149    90    91    1
   150    90    89    1
   151    90    93    1
   152    82    83    1
   153    82    81    1
   154    94    93    1
   155    70    69    2
   156    91    92    2
   157    83    84    2
   158    69    68    1
   159    71    68    1
   160    67    68    1
