@<TRIPOS>MOLECULE
tmp/1k4hA00.pdb
 173 162 0 0 0
SMALL
GASTEIGER

@<TRIPOS>ATOM
      1  N         10.2400    9.7340   11.9330 N.3    35  VAL35      -0.1245
      2  CA         9.5330   10.6840   12.7830 C.3    35  VAL35       0.1561
      3  C          8.0680   10.9030   12.4050 C.2    35  VAL35       0.2260
      4  O          7.7380   11.2050   11.2570 O.2    35  VAL35      -0.2867
      5  CB        10.2950   12.0370   12.8600 C.3    35  VAL35       0.0252
      6  CG1        9.4910   13.0730   13.6530 C.3    35  VAL35       0.0019
      7  CG2       11.6750   11.8220   13.5030 C.3    35  VAL35       0.0019
      8  N          9.1780    7.5460   16.1110 N.3    58  LEU58      -0.1245
      9  CA         9.1760    8.5630   17.1540 C.3    58  LEU58       0.1561
     10  C          7.9180    9.4270   17.0370 C.2    58  LEU58       0.2260
     11  O          7.4430    9.6940   15.9390 O.2    58  LEU58      -0.2867
     12  CB        10.4510    9.4190   17.0550 C.3    58  LEU58       0.0270
     13  CG        10.6600   10.6230   17.9940 C.3    58  LEU58       0.0019
     14  CD1       12.1280   10.8800   18.2090 C.3    58  LEU58       0.0001
     15  CD2       10.0420   11.8700   17.3980 C.3    58  LEU58       0.0001
     16  N          6.1520   13.0950   18.1940 N.3    60  ASN60      -0.1240
     17  CA         6.4420   14.4300   18.7310 C.3    60  ASN60       0.1653
     18  C          5.3930   14.8520   19.7620 C.2    60  ASN60       0.2266
     19  O          4.2510   15.1580   19.4110 O.2    60  ASN60      -0.2867
     20  CB         6.4960   15.4800   17.6100 C.3    60  ASN60       0.1155
     21  CG         7.7410   15.3620   16.7350 C.2    60  ASN60       0.2627
     22  OD1        7.6870   15.6230   15.5300 O.2    60  ASN60      -0.2716
     23  ND2        8.8670   14.9830   17.3380 N.am   60  ASN60      -0.0877
     24  N          9.3890   12.0940   22.4370 N.3    92  ASP92      -0.1225
     25  CA        10.2940   13.0730   23.0220 C.3    92  ASP92       0.1805
     26  C          9.5220   13.7650   24.1570 C.2    92  ASP92       0.2598
     27  O          8.3190   13.5440   24.3210 O.2    92  ASP92      -0.2718
     28  CB        10.8410   14.0950   22.0000 C.3    92  ASP92       0.1424
     29  CG         9.7600   14.7540   21.1390 C.2    92  ASP92       0.3668
     30  OD1        8.6600   15.0420   21.6430 O.co2  92  ASP92      -0.2456
     31  OD2       10.0430   14.9900   19.9470 O.co2  92  ASP92      -0.2456
     32  N         10.2050   14.5630   24.9720 N.am   93  SER93      -0.1938
     33  CA         9.5580   15.2090   26.1040 C.3    93  SER93       0.2055
     34  C          8.7050   16.4150   25.7300 C.2    93  SER93       0.2643
     35  O          7.8240   16.8290   26.4950 O.2    93  SER93      -0.2714
     36  CB        10.6190   15.6150   27.1120 C.3    93  SER93       0.2130
     37  OG        11.4820   16.6040   26.5770 O.3    93  SER93      -0.2179
     38  N          8.9710   16.9940   24.5670 N.am   94  GLY94      -0.1954
     39  CA         8.2340   18.1590   24.1260 C.3    94  GLY94       0.1869
     40  C          8.9330   19.4810   24.4250 C.2    94  GLY94       0.2309
     41  O          8.6520   20.5080   23.7980 O.2    94  GLY94      -0.2863
     42  N         12.0680   20.5240   23.7950 N.3    96  TYR96      -0.1227
     43  CA        12.8780   21.0850   22.7180 C.3    96  TYR96       0.1736
     44  C         12.0380   21.8780   21.7310 C.2    96  TYR96       0.2595
     45  O         12.3620   23.0230   21.4170 O.2    96  TYR96      -0.2718
     46  CB        13.6420   19.9790   21.9810 C.3    96  TYR96       0.0548
     47  CG        14.4290   20.4640   20.7790 C.ar   96  TYR96      -0.0200
     48  CD1       15.7460   20.9160   20.9150 C.ar   96  TYR96      -0.0009
     49  CD2       13.8600   20.4620   19.4990 C.ar   96  TYR96      -0.0009
     50  CE1       16.4790   21.3530   19.8060 C.ar   96  TYR96       0.0417
     51  CE2       14.5810   20.8980   18.3840 C.ar   96  TYR96       0.0417
     52  CZ        15.8910   21.3410   18.5440 C.ar   96  TYR96       0.1957
     53  OH        16.6100   21.7610   17.4430 O.3    96  TYR96      -0.2866
     54  N         10.9660   21.2640   21.2410 N.am   97  GLN97      -0.1979
     55  CA        10.0950   21.9270   20.2860 C.3    97  GLN97       0.1601
     56  C          9.3550   23.1120   20.9020 C.2    97  GLN97       0.2287
     57  O          8.7960   23.9390   20.1830 O.2    97  GLN97      -0.2864
     58  CB         9.1220   20.9310   19.6520 C.3    97  GLN97       0.0394
     59  CG         9.8190   19.8180   18.8800 C.3    97  GLN97       0.0908
     60  CD         8.8770   19.0480   17.9700 C.2    97  GLN97       0.2608
     61  OE1        7.8960   18.4560   18.4220 O.2    97  GLN97      -0.2717
     62  NE2        9.1750   19.0560   16.6700 N.am   97  GLN97      -0.0878
     63  N         14.0220   17.7120   29.7720 N.3   146  ASP146     -0.1239
     64  CA        15.2290   18.4740   30.0510 C.3   146  ASP146      0.1674
     65  C         15.1770   19.8850   29.4790 C.2   146  ASP146      0.2266
     66  O         14.1710   20.3000   28.8990 O.2   146  ASP146     -0.2867
     67  CB        16.4560   17.7370   29.4900 C.3   146  ASP146      0.1410
     68  CG        16.4700   17.6720   27.9620 C.2   146  ASP146      0.3668
     69  OD1       15.4410   17.9610   27.3140 O.co2 146  ASP146     -0.2456
     70  OD2       17.5250   17.3280   27.3980 O.co2 146  ASP146     -0.2456
     71  N         17.2710   22.0550   26.8680 N.3   148  CYS148     -0.1235
     72  CA        18.3070   22.0150   25.8390 C.3   148  CYS148      0.1677
     73  C         19.1380   23.2990   25.8700 C.2   148  CYS148      0.2270
     74  O         18.6030   24.4000   26.0270 O.2   148  CYS148     -0.2867
     75  CB        17.6940   21.7910   24.4490 C.3   148  CYS148      0.0956
     76  SG        18.8910   21.2540   23.1730 S.3   148  CYS148     -0.0801
     77  N         18.7850   11.9970   29.5960 N.3   191  ILE191     -0.1245
     78  CA        19.5030   12.7470   28.5600 C.3   191  ILE191      0.1561
     79  C         20.7220   13.5000   29.0860 C.2   191  ILE191      0.2260
     80  O         20.6120   14.3390   29.9790 O.2   191  ILE191     -0.2867
     81  CB        18.5760   13.7600   27.8440 C.3   191  ILE191      0.0252
     82  CG1       17.3090   13.0580   27.3360 C.3   191  ILE191      0.0019
     83  CG2       19.3310   14.4410   26.6920 C.3   191  ILE191      0.0019
     84  CD1       16.2390   14.0010   26.8070 C.3   191  ILE191      0.0001
     85  N         23.6230   16.2130   29.0780 N.3   193  GLN193     -0.1245
     86  CA        23.8070   17.5800   28.5930 C.3   193  GLN193      0.1566
     87  C         25.2390   17.9880   28.9240 C.2   193  GLN193      0.2260
     88  O         26.0460   17.1440   29.3180 O.2   193  GLN193     -0.2867
     89  CB        22.8000   18.5440   29.2440 C.3   193  GLN193      0.0367
     90  CG        21.3430   18.3540   28.8090 C.3   193  GLN193      0.0905
     91  CD        21.1110   18.6490   27.3270 C.2   193  GLN193      0.2608
     92  OE1       21.8790   19.3670   26.6920 O.2   193  GLN193     -0.2717
     93  NE2       20.0490   18.0830   26.7760 N.am  193  GLN193     -0.0878
     94  N         22.3580   11.3270   24.1330 N.3   218  VAL218     -0.1231
     95  CA        23.3790   12.3560   24.1210 C.3   218  VAL218      0.1692
     96  C         22.6440   13.5670   23.5480 C.2   218  VAL218      0.2593
     97  O         22.3160   13.6170   22.3560 O.2   218  VAL218     -0.2718
     98  CB        24.5900   11.9660   23.2420 C.3   218  VAL218      0.0266
     99  CG1       25.6120   13.1030   23.2060 C.3   218  VAL218      0.0020
    100  CG2       25.2440   10.6980   23.7900 C.3   218  VAL218      0.0020
    101  N         22.2630   14.4740   24.4390 N.am  219  GLY219     -0.1942
    102  CA        21.5520   15.6590   24.0120 C.3   219  GLY219      0.2014
    103  C         22.4760   16.8420   23.8090 C.2   219  GLY219      0.2639
    104  O         23.6690   16.7740   24.1130 O.2   219  GLY219     -0.2714
    105  N         21.9230   17.9150   23.2520 N.am  220  GLY220     -0.1939
    106  CA        22.6950   19.1250   23.0290 C.3   220  GLY220      0.2014
    107  C         23.5830   19.1580   21.8000 C.2   220  GLY220      0.2639
    108  O         24.3840   20.0800   21.6520 O.2   220  GLY220     -0.2714
    109  N         23.4680   18.1550   20.9320 N.am  221  LEU221     -0.1963
    110  CA        24.2720   18.1100   19.7160 C.3   221  LEU221      0.1728
    111  C         23.3860   18.2850   18.4890 C.2   221  LEU221      0.2616
    112  O         22.1660   18.2430   18.5960 O.2   221  LEU221     -0.2715
    113  CB        25.0840   16.8140   19.6390 C.3   221  LEU221      0.0311
    114  CG        26.1260   16.6210   20.7490 C.3   221  LEU221      0.0022
    115  CD1       26.9160   15.3440   20.5060 C.3   221  LEU221      0.0001
    116  CD2       27.0660   17.8190   20.8050 C.3   221  LEU221      0.0001
    117  N         24.0050   18.4600   17.3260 N.am  222  ALA222     -0.1963
    118  CA        23.2780   18.6830   16.0760 C.3   222  ALA222      0.1728
    119  C         22.4660   19.9770   16.2050 C.2   222  ALA222      0.2616
    120  O         21.3200   20.0610   15.7550 O.2   222  ALA222     -0.2715
    121  CB        22.3620   17.4980   15.7550 C.3   222  ALA222      0.0334
    122  N         23.0740   20.9730   16.8510 N.am  223  VAL223     -0.1977
    123  CA        22.4470   22.2770   17.0700 C.3   223  VAL223      0.1596
    124  C         23.2520   23.4190   16.4440 C.2   223  VAL223      0.2287
    125  O         23.1170   24.5810   16.8380 O.2   223  VAL223     -0.2864
    126  CB        22.2140   22.5580   18.5840 C.3   223  VAL223      0.0276
    127  CG1       21.1330   21.6310   19.1320 C.3   223  VAL223      0.0022
    128  CG2       23.5000   22.3780   19.3720 C.3   223  VAL223      0.0022
    129  N         21.4620    6.8430   22.6260 N.3   248  TYR248     -0.1241
    130  CA        20.6110    7.4990   21.6450 C.3   248  TYR248      0.1605
    131  C         21.0690    8.9100   21.2780 C.2   248  TYR248      0.2264
    132  O         21.1280    9.7870   22.1330 O.2   248  TYR248     -0.2867
    133  CB        19.2000    7.5050   22.2400 C.3   248  TYR248      0.0534
    134  CG        18.1240    8.2860   21.5260 C.ar  248  TYR248     -0.0201
    135  CD1       18.1950    8.5570   20.1580 C.ar  248  TYR248     -0.0009
    136  CD2       17.0120    8.7410   22.2320 C.ar  248  TYR248     -0.0009
    137  CE1       17.1770    9.2650   19.5170 C.ar  248  TYR248      0.0417
    138  CE2       16.0000    9.4410   21.6070 C.ar  248  TYR248      0.0417
    139  CZ        16.0840    9.7000   20.2540 C.ar  248  TYR248      0.1957
    140  OH        15.0590   10.3830   19.6500 O.3   248  TYR248     -0.2866
    141  N         20.0650   12.0870   19.6800 N.3   250  MET250     -0.1230
    142  CA        18.8720   12.8210   19.2840 C.3   250  MET250      0.1702
    143  C         19.0510   13.7980   18.1230 C.2   250  MET250      0.2592
    144  O         20.0260   14.5560   18.0780 O.2   250  MET250     -0.2718
    145  CB        18.3150   13.5610   20.5010 C.3   250  MET250      0.0401
    146  CG        18.1970   12.6870   21.7380 C.3   250  MET250      0.0596
    147  SD        17.4570   13.5270   23.1470 S.3   250  MET250     -0.1393
    148  CE        15.7450   13.3430   22.7660 C.3   250  MET250      0.0692
    149  N         18.1060   13.7520   17.1850 N.am  251  GLY251     -0.1957
    150  CA        18.1110   14.6490   16.0420 C.3   251  GLY251      0.1869
    151  C         19.2910   14.5770   15.0940 C.2   251  GLY251      0.2309
    152  O         19.7180   15.5960   14.5420 O.2   251  GLY251     -0.2863
    153  N         17.2230    9.3140   15.0600 N.3   270  ASP270     -0.1225
    154  CA        15.9460    9.8310   14.5820 C.3   270  ASP270      0.1805
    155  C         16.2500   11.1400   13.8640 C.2   270  ASP270      0.2598
    156  O         17.1910   11.8510   14.2340 O.2   270  ASP270     -0.2718
    157  CB        14.9690   10.1040   15.7410 C.3   270  ASP270      0.1424
    158  CG        15.2020   11.4550   16.4180 C.2   270  ASP270      0.3668
    159  OD1       16.0700   11.5450   17.3000 O.co2 270  ASP270     -0.2456
    160  OD2       14.5150   12.4290   16.0490 O.co2 270  ASP270     -0.2456
    161  N         15.4620   11.4530   12.8400 N.am  271  CYS271     -0.1956
    162  CA        15.6420   12.6990   12.1010 C.3   271  CYS271      0.1843
    163  C         14.5220   12.9070   11.1000 C.2   271  CYS271      0.2625
    164  O         13.9150   11.9450   10.6260 O.2   271  CYS271     -0.2714
    165  CB        17.0010   12.7320   11.3880 C.3   271  CYS271      0.0997
    166  SG        17.6170   14.4090   10.9840 S.3   271  CYS271     -0.0797
    167  N         14.2270   14.1740   10.8180 N.am  272  VAL272     -0.1977
    168  CA        13.1850   14.5340    9.8630 C.3   272  VAL272      0.1596
    169  C         13.7600   14.6360    8.4560 C.2   272  VAL272      0.2287
    170  O         13.0190   14.8310    7.5000 O.2   272  VAL272     -0.2864
    171  CB        12.5180   15.8880   10.2120 C.3   272  VAL272      0.0276
    172  CG1       11.8310   15.8040   11.5680 C.3   272  VAL272      0.0022
    173  CG2       13.5470   17.0170   10.1890 C.3   272  VAL272      0.0022
@<TRIPOS>BOND
     1   170   169    2
     2   169   168    1
     3   168   171    1
     4   168   167    1
     5   173   171    1
     6   171   172    1
     7   164   163    2
     8   167   163   am
     9   166   165    1
    10   163   162    1
    11     4     3    2
    12   165   162    1
    13     1     2    1
    14   162   161    1
    15     3     2    1
    16     2     5    1
    17   161   155   am
    18     5     7    1
    19     5     6    1
    20   155   156    2
    21   155   154    1
    22   152   151    2
    23   154   153    1
    24   154   157    1
    25   151   150    1
    26    22    21    2
    27   157   158    1
    28   120   119    2
    29   121   118    1
    30    11    10    2
    31   150   149    1
    32   160   158   ar
    33   118   119    1
    34   118   117    1
    35     8     9    1
    36   119   122   am
    37   158   159   ar
    38   124   125    2
    39   124   123    1
    40    62    60   am
    41    21    23   am
    42    21    20    1
    43   122   123    1
    44    10     9    1
    45    12     9    1
    46    12    13    1
    47   123   126    1
    48   149   143   am
    49   117   111   am
    50    15    13    1
    51    53    52    1
    52    20    17    1
    53    60    61    2
    54    60    59    1
    55    13    14    1
    56   144   143    2
    57   143   142    1
    58    16    17    1
    59    51    52   ar
    60    51    49   ar
    61   111   112    2
    62   111   110    1
    63    52    50   ar
    64   126   127    1
    65   126   128    1
    66    17    18    1
    67    59    58    1
    68   142   141    1
    69   142   145    1
    70    19    18    2
    71    49    47   ar
    72   137   135   ar
    73   137   139   ar
    74   113   110    1
    75   113   114    1
    76   140   139    1
    77    58    55    1
    78   110   109    1
    79    50    48   ar
    80    31    29   ar
    81   135   134   ar
    82    57    56    2
    83   139   138   ar
    84    55    56    1
    85    55    54    1
    86   145   146    1
    87   115   114    1
    88   114   116    1
    89    47    48   ar
    90    47    46    1
    91   109   107   am
    92    29    30   ar
    93    29    28    1
    94    54    44   am
    95   131   130    1
    96   131   132    2
    97    45    44    2
    98   134   136   ar
    99   134   133    1
   100   138   136   ar
   101   130   133    1
   102   130   129    1
   103   108   107    2
   104    44    43    1
   105   146   147    1
   106   107   106    1
   107    46    43    1
   108    28    25    1
   109    97    96    2
   110    24    25    1
   111    43    42    1
   112   148   147    1
   113    25    26    1
   114   106   105    1
   115    76    75    1
   116    99    98    1
   117    98   100    1
   118    98    95    1
   119   105   103   am
   120    96    95    1
   121    96   101   am
   122    41    40    2
   123   103   102    1
   124   103   104    2
   125   102   101    1
   126    95    94    1
   127    39    40    1
   128    39    38    1
   129    26    27    2
   130    26    32   am
   131    75    72    1
   132    38    34   am
   133    32    33    1
   134    34    33    1
   135    34    35    2
   136    72    73    1
   137    72    71    1
   138    73    74    2
   139    33    36    1
   140    37    36    1
   141    92    91    2
   142    83    81    1
   143    93    91   am
   144    84    82    1
   145    69    68   ar
   146    91    90    1
   147    82    81    1
   148    70    68   ar
   149    81    78    1
   150    68    67    1
   151    78    79    1
   152    78    77    1
   153    86    87    1
   154    86    85    1
   155    86    89    1
   156    90    89    1
   157    66    65    2
   158    87    88    2
   159    79    80    2
   160    65    64    1
   161    67    64    1
   162    63    64    1
