@<TRIPOS>MOLECULE
tmp/1k4mC01.pdb
 106 101 0 0 0
SMALL
GASTEIGER

@<TRIPOS>ATOM
      1  N         21.9970   50.6620   38.2030 N.3    13  ASP13      -0.1239
      2  CA        20.6270   50.9980   38.6140 C.3    13  ASP13       0.1674
      3  C         19.6530   50.9050   37.4240 C.2    13  ASP13       0.2266
      4  O         19.0950   51.9140   36.9830 O.2    13  ASP13      -0.2867
      5  CB        20.6460   52.4240   39.2160 C.3    13  ASP13       0.1410
      6  CG        19.2820   52.8790   39.7380 C.2    13  ASP13       0.3668
      7  OD1       18.5450   52.0610   40.3300 O.co2  13  ASP13      -0.2456
      8  OD2       18.9540   54.0720   39.5650 O.co2  13  ASP13      -0.2456
      9  N         22.8650   45.7590   33.6710 N.3    16  HIS16      -0.1241
     10  CA        22.3120   45.3070   32.4100 C.3    16  HIS16       0.1621
     11  C         23.4150   44.7040   31.5400 C.2    16  HIS16       0.2264
     12  O         24.5670   44.6250   31.9700 O.2    16  HIS16      -0.2867
     13  CB        21.6100   46.4630   31.7090 C.3    16  HIS16       0.0745
     14  CG        22.5000   47.6390   31.4610 C.ar   16  HIS16       0.0817
     15  ND1       22.2960   48.8690   32.0550 N.ar   16  HIS16      -0.2268
     16  CD2       23.5860   47.7790   30.6650 C.ar   16  HIS16       0.1154
     17  CE1       23.2150   49.7180   31.6300 C.ar   16  HIS16       0.1986
     18  NE2       24.0100   49.0820   30.7860 N.ar   16  HIS16      -0.2212
     19  N         26.7490   46.4150   30.8080 N.3    19  HIS19      -0.1241
     20  CA        27.7380   46.3500   31.8800 C.3    19  HIS19       0.1621
     21  C         28.4620   45.0150   31.8100 C.2    19  HIS19       0.2264
     22  O         29.6940   44.9250   31.8920 O.2    19  HIS19      -0.2867
     23  CB        27.0970   46.3650   33.2820 C.3    19  HIS19       0.0745
     24  CG        26.3230   47.6100   33.6240 C.ar   19  HIS19       0.0817
     25  ND1       26.8720   48.8760   33.5920 N.ar   19  HIS19      -0.2268
     26  CD2       25.0400   47.7700   34.0280 C.ar   19  HIS19       0.1154
     27  CE1       25.9570   49.7610   33.9500 C.ar   19  HIS19       0.1986
     28  NE2       24.8360   49.1170   34.2190 N.ar   19  HIS19      -0.2212
     29  N         26.9990   61.5760   40.8860 N.3    46  ARG46      -0.1231
     30  CA        25.7200   61.3130   40.2280 C.3    46  ARG46       0.1679
     31  C         24.5530   61.3940   41.2000 C.2    46  ARG46       0.2434
     32  O         24.7310   61.2560   42.4070 O.2    46  ARG46      -0.2733
     33  CB        25.7370   59.9080   39.5920 C.3    46  ARG46       0.0321
     34  CG        26.0880   58.7830   40.5870 C.3    46  ARG46       0.0489
     35  CD        25.3700   57.4790   40.2270 C.3    46  ARG46       0.2205
     36  NE        25.9580   56.8750   39.0500 N.pl3  46  ARG46      -0.0865
     37  CZ        25.3450   56.0540   38.1960 C.cat  46  ARG46       0.5346
     38  NH1       24.0690   55.7010   38.3490 N.pl3  46  ARG46       0.1354
     39  NH2       26.0400   55.5730   37.1770 N.pl3  46  ARG46       0.1354
     40  N         23.3310   61.5990   40.6790 N.am   47  PRO47      -0.2729
     41  CA        22.1670   61.6810   41.5730 C.3    47  PRO47       0.1401
     42  C         21.9350   60.3640   42.3120 C.2    47  PRO47       0.2269
     43  O         22.5640   59.3570   42.0100 O.2    47  PRO47      -0.2865
     44  CB        21.0150   62.0440   40.6260 C.3    47  PRO47       0.0296
     45  CG        21.4840   61.5130   39.2770 C.3    47  PRO47       0.0237
     46  CD        22.9550   61.8360   39.2710 C.3    47  PRO47       0.0939
     47  N         32.8620   56.0900   28.2610 N.3   109  ASP109     -0.1239
     48  CA        32.2330   57.2920   28.8200 C.3   109  ASP109      0.1674
     49  C         32.8690   57.7320   30.1430 C.2   109  ASP109      0.2266
     50  O         32.9480   58.9310   30.4330 O.2   109  ASP109     -0.2867
     51  CB        30.7330   57.0820   29.0470 C.3   109  ASP109      0.1410
     52  CG        30.4460   56.0580   30.1230 C.2   109  ASP109      0.3668
     53  OD1       30.6660   54.8590   29.8820 O.co2 109  ASP109     -0.2456
     54  OD2       30.0110   56.4380   31.2220 O.co2 109  ASP109     -0.2456
     55  N         32.3360   52.0290   23.8770 N.3   134  ARG134     -0.1245
     56  CA        30.9390   52.3660   24.0130 C.3   134  ARG134      0.1563
     57  C         30.6380   53.1570   22.7480 C.2   134  ARG134      0.2260
     58  O         31.2790   54.1710   22.4540 O.2   134  ARG134     -0.2867
     59  CB        30.7090   53.1700   25.2910 C.3   134  ARG134      0.0307
     60  CG        29.2510   53.1710   25.7000 C.3   134  ARG134      0.0489
     61  CD        29.0310   53.5840   27.1530 C.3   134  ARG134      0.2205
     62  NE        27.5930   53.6290   27.3850 N.pl3 134  ARG134     -0.0865
     63  CZ        27.0110   54.1430   28.4570 C.cat 134  ARG134      0.5346
     64  NH1       27.7390   54.6620   29.4280 N.pl3 134  ARG134      0.1354
     65  NH2       25.6890   54.1570   28.5410 N.pl3 134  ARG134      0.1354
     66  N         30.7320   57.5030   21.6210 N.3   137  TYR137     -0.1241
     67  CA        31.5520   58.3970   22.4410 C.3   137  TYR137      0.1605
     68  C         32.8410   58.8690   21.8180 C.2   137  TYR137      0.2264
     69  O         33.4300   58.1930   20.9800 O.2   137  TYR137     -0.2867
     70  CB        31.8750   57.7580   23.7950 C.3   137  TYR137      0.0534
     71  CG        30.6540   57.6390   24.6640 C.ar  137  TYR137     -0.0201
     72  CD1       29.6710   56.6990   24.3770 C.ar  137  TYR137     -0.0009
     73  CD2       30.4420   58.5140   25.7270 C.ar  137  TYR137     -0.0009
     74  CE1       28.5080   56.6250   25.1240 C.ar  137  TYR137      0.0417
     75  CE2       29.2750   58.4530   26.4780 C.ar  137  TYR137      0.0417
     76  CZ        28.3130   57.4980   26.1680 C.ar  137  TYR137      0.1957
     77  OH        27.1610   57.4090   26.9080 O.3   137  TYR137     -0.2866
     78  N         21.5860   51.6020   28.2660 N.3   180  SER180     -0.1202
     79  CA        21.8940   52.4320   29.4350 C.3   180  SER180      0.2020
     80  C         20.8030   52.1450   30.4470 C.2   180  SER180      0.2619
     81  O         19.6830   51.7670   30.0650 O.2   180  SER180     -0.2717
     82  CB        21.8870   53.9180   29.0770 C.3   180  SER180      0.2103
     83  OG        20.5740   54.3600   28.7630 O.3   180  SER180     -0.2182
     84  N         21.1320   52.2840   31.7220 N.am  181  ALA181     -0.1965
     85  CA        20.1640   52.0580   32.7760 C.3   181  ALA181      0.1728
     86  C         19.0300   53.0710   32.6230 C.2   181  ALA181      0.2616
     87  O         17.8630   52.7400   32.8330 O.2   181  ALA181     -0.2715
     88  CB        20.8230   52.2060   34.1370 C.3   181  ALA181      0.0334
     89  N         19.3570   54.2990   32.2370 N.am  182  THR182     -0.1951
     90  CA        18.3180   55.3310   32.0910 C.3   182  THR182      0.1897
     91  C         17.2430   54.9230   31.0630 C.2   182  THR182      0.2313
     92  O         16.0540   55.1050   31.2970 O.2   182  THR182     -0.2863
     93  CB        18.9440   56.6860   31.6960 C.3   182  THR182      0.1794
     94  OG1       19.8440   57.1120   32.7430 O.3   182  THR182     -0.2208
     95  CG2       17.8500   57.7490   31.4790 C.3   182  THR182      0.0378
     96  N         15.0070   52.1460   32.6520 N.3   185  ARG185     -0.1245
     97  CA        14.0420   52.7170   33.5840 C.3   185  ARG185      0.1563
     98  C         12.8970   53.4030   32.8380 C.2   185  ARG185      0.2260
     99  O         11.7250   53.2230   33.1950 O.2   185  ARG185     -0.2867
    100  CB        14.7420   53.6950   34.5490 C.3   185  ARG185      0.0307
    101  CG        15.7610   53.0210   35.4940 C.3   185  ARG185      0.0489
    102  CD        16.1510   53.9250   36.6950 C.3   185  ARG185      0.2205
    103  NE        16.7070   55.2220   36.2950 N.pl3 185  ARG185     -0.0865
    104  CZ        17.9940   55.4680   36.0100 C.cat 185  ARG185      0.5346
    105  NH1       18.9000   54.5010   36.0660 N.pl3 185  ARG185      0.1354
    106  NH2       18.3770   56.6960   35.6880 N.pl3 185  ARG185      0.1354
@<TRIPOS>BOND
     1    69    68    2
     2    66    67    1
     3    68    67    1
     4    67    70    1
     5    58    57    2
     6    57    56    1
     7    70    71    1
     8    55    56    1
     9    56    59    1
    10    72    71   ar
    11    72    74   ar
    12    71    73   ar
    13    74    76   ar
    14    59    60    1
    15    60    61    1
    16    73    75   ar
    17    76    75   ar
    18    76    77    1
    19    61    62    1
    20    62    63    2
    21    47    48    1
    22    78    79    1
    23    63    65    1
    24    63    64    1
    25    83    82    1
    26    48    51    1
    27    48    49    1
    28    51    52    1
    29    82    79    1
    30    79    80    1
    31    53    52   ar
    32    81    80    2
    33    52    54   ar
    34    49    50    2
    35    80    84   am
    36    16    18   ar
    37    16    14   ar
    38    18    17   ar
    39    19    20    1
    40    91    92    2
    41    91    90    1
    42    14    13    1
    43    14    15   ar
    44    95    93    1
    45    11    12    2
    46    11    10    1
    47    17    15   ar
    48    93    90    1
    49    93    94    1
    50    13    10    1
    51    84    85    1
    52    21    20    1
    53    21    22    2
    54    20    23    1
    55    90    89    1
    56    89    86   am
    57    10     9    1
    58    86    85    1
    59    86    87    2
    60    96    97    1
    61    85    88    1
    62    98    99    2
    63    98    97    1
    64    23    24    1
    65    97   100    1
    66    25    24   ar
    67    25    27   ar
    68    24    26   ar
    69    27    28   ar
    70    26    28   ar
    71   100   101    1
    72   101   102    1
    73   106   104    1
    74   104   105    1
    75   104   103    2
    76   103   102    1
    77     4     3    2
    78    39    37    1
    79     3     2    1
    80    37    38    1
    81    37    36    2
    82     1     2    1
    83     2     5    1
    84    36    35    1
    85     5     6    1
    86    46    45    1
    87    46    40    1
    88    45    44    1
    89     8     6   ar
    90    33    30    1
    91    33    34    1
    92     6     7   ar
    93    35    34    1
    94    30    29    1
    95    30    31    1
    96    44    41    1
    97    40    31   am
    98    40    41    1
    99    31    32    2
   100    41    42    1
   101    43    42    2
