@<TRIPOS>MOLECULE
tmp/1k4tD00.pdb
 116 110 0 0 0
SMALL
GASTEIGER

@<TRIPOS>ATOM
      1  N         29.1720  -12.3180   29.4120 N.3   152  ASN152     -0.1240
      2  CA        27.9840  -13.1070   29.7540 C.3   152  ASN152      0.1653
      3  C         28.1030  -14.5080   29.1680 C.2   152  ASN152      0.2266
      4  O         27.4260  -14.8370   28.1910 O.2   152  ASN152     -0.2867
      5  CB        26.7260  -12.4220   29.2020 C.3   152  ASN152      0.1155
      6  CG        26.3640  -11.1380   29.9510 C.2   152  ASN152      0.2627
      7  OD1       25.4280  -11.1250   30.7500 O.2   152  ASN152     -0.2716
      8  ND2       27.0830  -10.0550   29.6750 N.am  152  ASN152     -0.0877
      9  N         21.2140  -16.9750   28.6890 N.3   156  GLU156     -0.1245
     10  CA        19.9510  -16.7280   29.3890 C.3   156  GLU156      0.1567
     11  C         18.9810  -17.8930   29.1850 C.2   156  GLU156      0.2260
     12  O         18.8470  -18.4090   28.0800 O.2   156  GLU156     -0.2867
     13  CB        19.3040  -15.4420   28.8600 C.3   156  GLU156      0.0388
     14  CG        19.1650  -14.3130   29.8750 C.3   156  GLU156      0.1160
     15  CD        20.4920  -13.7070   30.3110 C.2   156  GLU156      0.3649
     16  OE1       20.8300  -13.8300   31.5120 O.co2 156  GLU156     -0.2457
     17  OE2       21.1760  -13.0780   29.4690 O.co2 156  GLU156     -0.2457
     18  N         10.4910   -3.5120   25.9460 N.3   164  ARG164     -0.1245
     19  CA        10.2670   -2.2390   26.6240 C.3   164  ARG164      0.1563
     20  C          9.2120   -1.4750   25.8370 C.2   164  ARG164      0.2260
     21  O          9.0820   -1.6510   24.6300 O.2   164  ARG164     -0.2867
     22  CB        11.5890   -1.4600   26.7700 C.3   164  ARG164      0.0307
     23  CG        12.6260   -2.2500   27.5970 C.3   164  ARG164      0.0489
     24  CD        13.7990   -1.4340   28.1320 C.3   164  ARG164      0.2205
     25  NE        14.8700   -1.2710   27.1550 N.pl3 164  ARG164     -0.0865
     26  CZ        16.0410   -1.9160   27.1720 C.cat 164  ARG164      0.5346
     27  NH1       16.3380   -2.7950   28.1290 N.pl3 164  ARG164      0.1354
     28  NH2       16.9190   -1.6880   26.2050 N.pl3 164  ARG164      0.1354
     29  N         24.5570  -16.8340   18.0160 N.3   216  TRP216     -0.1241
     30  CA        23.3610  -17.6280   17.7400 C.3   216  TRP216      0.1605
     31  C         22.2200  -16.6830   17.3560 C.2   216  TRP216      0.2264
     32  O         22.2590  -15.4900   17.6500 O.2   216  TRP216     -0.2867
     33  CB        22.9630  -18.4970   18.9430 C.3   216  TRP216      0.0550
     34  CG        22.5210  -17.7420   20.1330 C.ar  216  TRP216      0.0003
     35  CD1       21.2500  -17.3470   20.4260 C.ar  216  TRP216      0.0946
     36  CD2       23.3480  -17.2610   21.1980 C.ar  216  TRP216      0.0152
     37  NE1       21.2330  -16.6420   21.6070 N.ar  216  TRP216     -0.2442
     38  CE2       22.5080  -16.5720   22.1010 C.ar  216  TRP216      0.0810
     39  CE3       24.7210  -17.3400   21.4740 C.ar  216  TRP216      0.0012
     40  CZ2       22.9940  -15.9600   23.2670 C.ar  216  TRP216      0.0191
     41  CZ3       25.2060  -16.7300   22.6340 C.ar  216  TRP216      0.0001
     42  CH2       24.3420  -16.0490   23.5150 C.ar  216  TRP216      0.0015
     43  N         22.6420  -12.8540   18.4850 N.3   225  LYS225     -0.1231
     44  CA        23.1010  -12.5180   19.8240 C.3   225  LYS225      0.1693
     45  C         24.5410  -13.0210   19.9330 C.2   225  LYS225      0.2592
     46  O         24.9160  -13.9910   19.2630 O.2   225  LYS225     -0.2718
     47  CB        22.2240  -13.2020   20.8740 C.3   225  LYS225      0.0285
     48  CG        20.7620  -12.7120   20.9170 C.3   225  LYS225      0.0035
     49  CD        20.6490  -11.2120   21.2040 C.3   225  LYS225      0.0206
     50  CE        20.3240  -10.4140   19.9340 C.3   225  LYS225      0.1093
     51  NZ        20.4500   -8.9170   20.0850 N.3   225  LYS225     -0.1314
     52  N         25.3380  -12.4010   20.7940 N.am  226  TYR226     -0.1976
     53  CA        26.7390  -12.7970   20.9220 C.3   226  TYR226      0.1639
     54  C         27.2350  -12.9010   22.3530 C.2   226  TYR226      0.2290
     55  O         26.6280  -12.3890   23.2860 O.2   226  TYR226     -0.2864
     56  CB        27.6550  -11.7590   20.2490 C.3   226  TYR226      0.0560
     57  CG        27.3430  -11.4280   18.8120 C.ar  226  TYR226     -0.0198
     58  CD1       26.4960  -10.3660   18.4910 C.ar  226  TYR226     -0.0009
     59  CD2       27.8940  -12.1680   17.7700 C.ar  226  TYR226     -0.0009
     60  CE1       26.2040  -10.0540   17.1660 C.ar  226  TYR226      0.0417
     61  CE2       27.6130  -11.8660   16.4560 C.ar  226  TYR226      0.0417
     62  CZ        26.7590  -10.8030   16.1590 C.ar  226  TYR226      0.1957
     63  OH        26.4460  -10.5230   14.8420 O.3   226  TYR226     -0.2866
     64  N         19.1230   11.4530   18.8630 N.3   288  ARG288     -0.1245
     65  CA        19.7220   10.2740   18.2350 C.3   288  ARG288      0.1563
     66  C         19.4330   10.2370   16.7370 C.2   288  ARG288      0.2260
     67  O         18.4490   10.8150   16.2740 O.2   288  ARG288     -0.2867
     68  CB        19.1940    8.9830   18.8840 C.3   288  ARG288      0.0307
     69  CG        19.5750    8.7940   20.3430 C.3   288  ARG288      0.0489
     70  CD        19.2270    7.3840   20.8300 C.3   288  ARG288      0.2205
     71  NE        19.5360    7.2090   22.2460 N.pl3 288  ARG288     -0.0865
     72  CZ        18.7360    7.5850   23.2410 C.cat 288  ARG288      0.5346
     73  NH1       17.5600    8.1580   22.9860 N.pl3 288  ARG288      0.1354
     74  NH2       19.1220    7.4160   24.4960 N.pl3 288  ARG288      0.1354
     75  N         14.2630    6.2030   22.3890 N.3   332  LYS332     -0.1231
     76  CA        14.7240    4.8470   22.7200 C.3   332  LYS332      0.1693
     77  C         14.1130    4.3520   24.0290 C.2   332  LYS332      0.2592
     78  O         13.9160    5.1340   24.9570 O.2   332  LYS332     -0.2718
     79  CB        16.2520    4.7980   22.8270 C.3   332  LYS332      0.0285
     80  CG        16.7860    3.4170   23.1870 C.3   332  LYS332      0.0035
     81  CD        18.2910    3.3270   23.0970 C.3   332  LYS332      0.0206
     82  CE        18.7500    1.9100   23.4320 C.3   332  LYS332      0.1093
     83  NZ        20.2210    1.7580   23.3120 N.3   332  LYS332     -0.1314
     84  N         13.8020    3.0540   24.0840 N.am  333  ASP333     -0.1974
     85  CA        13.2090    2.4170   25.2700 C.3   333  ASP333      0.1709
     86  C         11.8590    3.0350   25.6230 C.2   333  ASP333      0.2293
     87  O         11.4060    2.9530   26.7700 O.2   333  ASP333     -0.2864
     88  CB        14.1600    2.5310   26.4760 C.3   333  ASP333      0.1436
     89  CG        15.5040    1.8460   26.2390 C.2   333  ASP333      0.3671
     90  OD1       15.5510    0.8470   25.4810 O.co2 333  ASP333     -0.2456
     91  OD2       16.5180    2.3050   26.8150 O.co2 333  ASP333     -0.2456
     92  N         18.2120   11.1160   29.7840 N.3   432  HIS432     -0.1241
     93  CA        18.2720    9.8440   30.4850 C.3   432  HIS432      0.1621
     94  C         17.3890    9.9960   31.7230 C.2   432  HIS432      0.2264
     95  O         17.8610   10.0210   32.8630 O.2   432  HIS432     -0.2867
     96  CB        19.7150    9.4900   30.8420 C.3   432  HIS432      0.0745
     97  CG        20.5530    9.1260   29.6550 C.ar  432  HIS432      0.0817
     98  ND1       21.9160    9.3230   29.6160 N.ar  432  HIS432     -0.2268
     99  CD2       20.2160    8.5880   28.4570 C.ar  432  HIS432      0.1154
    100  CE1       22.3820    8.9260   28.4440 C.ar  432  HIS432      0.1986
    101  NE2       21.3710    8.4760   27.7220 N.ar  432  HIS432     -0.2212
    102  N         23.9020    5.6000   32.6350 N.3   518  THR518     -0.1218
    103  CA        24.2380    5.5170   31.2100 C.3   518  THR518      0.1862
    104  C         25.2940    6.4800   30.7110 C.2   518  THR518      0.2287
    105  O         26.2030    6.0740   29.9810 O.2   518  THR518     -0.2866
    106  CB        22.9890    5.5860   30.3260 C.3   518  THR518      0.1770
    107  OG1       22.1150    4.5070   30.6730 O.3   518  THR518     -0.2211
    108  CG2       23.3650    5.4450   28.8530 C.3   518  THR518      0.0375
    109  N         28.8580    5.3060   29.4290 N.3   522  ASN522     -0.1240
    110  CA        28.9310    5.3300   27.9690 C.3   522  ASN522      0.1653
    111  C         29.1920    6.6460   27.2520 C.2   522  ASN522      0.2266
    112  O         29.6570    6.6300   26.1050 O.2   522  ASN522     -0.2867
    113  CB        27.6380    4.7380   27.3800 C.3   522  ASN522      0.1155
    114  CG        27.2740    3.3940   27.9870 C.2   522  ASN522      0.2627
    115  OD1       27.7310    2.3580   27.5300 O.2   522  ASN522     -0.2716
    116  ND2       26.4530    3.4150   29.0140 N.am  522  ASN522     -0.0877
@<TRIPOS>BOND
     1    63    62    1
     2    62    61   ar
     3    62    60   ar
     4    67    66    2
     5    61    59   ar
     6    66    65    1
     7    60    58   ar
     8    31    32    2
     9    31    30    1
    10    30    29    1
    11    30    33    1
    12    59    57   ar
    13    65    64    1
    14    65    68    1
    15    43    44    1
    16    58    57   ar
    17    57    56    1
    18    68    69    1
    19    33    34    1
    20    46    45    2
    21    44    45    1
    22    44    47    1
    23    45    52   am
    24    50    51    1
    25    50    49    1
    26    34    35   ar
    27    34    36   ar
    28    56    53    1
    29    69    70    1
    30    35    37   ar
    31    52    53    1
    32    70    71    1
    33    47    48    1
    34    48    49    1
    35    53    54    1
    36    36    39   ar
    37    36    38   ar
    38    39    41   ar
    39    37    38   ar
    40    38    40   ar
    41    71    72    2
    42    54    55    2
    43    75    76    1
    44    41    42   ar
    45    76    79    1
    46    76    77    1
    47    79    80    1
    48    73    72    1
    49    81    80    1
    50    81    82    1
    51    72    74    1
    52    40    42   ar
    53    83    82    1
    54    77    84   am
    55    77    78    2
    56    84    85    1
    57    21    20    2
    58    85    86    1
    59    85    88    1
    60    90    89   ar
    61    86    87    2
    62    20    19    1
    63    18    19    1
    64   112   111    2
    65    28    26    1
    66    89    88    1
    67    89    91   ar
    68    19    22    1
    69    22    23    1
    70    25    26    2
    71    25    24    1
    72    26    27    1
    73   111   110    1
    74   113   110    1
    75   113   114    1
    76   115   114    2
    77    23    24    1
    78   101   100   ar
    79   101    99   ar
    80   110   109    1
    81   114   116   am
    82    12    11    2
    83     4     3    2
    84   100    98   ar
    85    99    97   ar
    86     9    10    1
    87   108   106    1
    88    13    10    1
    89    13    14    1
    90     3     2    1
    91    11    10    1
    92     5     2    1
    93     5     6    1
    94     1     2    1
    95    17    15   ar
    96    98    97   ar
    97    97    96    1
    98     8     6   am
    99    92    93    1
   100    14    15    1
   101     6     7    2
   102   105   104    2
   103    15    16   ar
   104   106   107    1
   105   106   103    1
   106    93    96    1
   107    93    94    1
   108   104   103    1
   109   103   102    1
   110    94    95    2
