@<TRIPOS>MOLECULE
tmp/1k4wA01.pdb
 183 172 0 0 0
SMALL
GASTEIGER

@<TRIPOS>ATOM
      1  N         31.8560   19.7370   10.2910 N.3    21  GLN21      -0.1245
      2  CA        33.0280   20.2170    9.5590 C.3    21  GLN21       0.1566
      3  C         34.1630   20.5430   10.5270 C.2    21  GLN21       0.2260
      4  O         35.3450   20.2760   10.2540 O.2    21  GLN21      -0.2867
      5  CB        32.7000   21.4720    8.7460 C.3    21  GLN21       0.0367
      6  CG        33.9750   22.0870    8.1660 C.3    21  GLN21       0.0905
      7  CD        33.7320   23.0510    7.0400 C.2    21  GLN21       0.2608
      8  OE1       34.5910   23.2160    6.1720 O.2    21  GLN21      -0.2717
      9  NE2       32.5790   23.7100    7.0490 N.am   21  GLN21      -0.0878
     10  N         27.4040   31.9400   -0.4250 N.3    55  CYS55      -0.1235
     11  CA        26.5580   31.4370    0.6510 C.3    55  CYS55       0.1677
     12  C         25.9070   30.1100    0.2870 C.2    55  CYS55       0.2270
     13  O         25.8000   29.2160    1.1280 O.2    55  CYS55      -0.2867
     14  CB        25.4830   32.4530    1.0030 C.3    55  CYS55       0.0956
     15  SG        26.1490   33.8860    1.8300 S.3    55  CYS55      -0.0801
     16  N         28.5180   27.4080    0.7200 N.3    58  GLN58      -0.1231
     17  CA        28.7490   27.1080    2.1220 C.3    58  GLN58       0.1698
     18  C         27.5840   26.3130    2.7220 C.2    58  GLN58       0.2592
     19  O         27.8000   25.3350    3.4350 O.2    58  GLN58      -0.2718
     20  CB        28.9610   28.3920    2.9190 C.3    58  GLN58       0.0381
     21  CG        29.3450   28.1280    4.3490 C.3    58  GLN58       0.0905
     22  CD        30.3910   27.0240    4.4800 C.2    58  GLN58       0.2608
     23  OE1       31.4700   27.0860    3.8660 O.2    58  GLN58      -0.2717
     24  NE2       30.0750   26.0030    5.2860 N.am   58  GLN58      -0.0878
     25  N         26.3570   26.7340    2.4270 N.am   59  ILE59      -0.1980
     26  CA        25.1670   26.0490    2.9330 C.3    59  ILE59       0.1595
     27  C         25.1370   24.6190    2.4060 C.2    59  ILE59       0.2287
     28  O         24.8600   23.6810    3.1510 O.2    59  ILE59      -0.2864
     29  CB        23.8770   26.7750    2.4940 C.3    59  ILE59       0.0276
     30  CG1       23.7970   28.1340    3.1790 C.3    59  ILE59       0.0022
     31  CG2       22.6520   25.9250    2.8130 C.3    59  ILE59       0.0022
     32  CD1       22.6430   28.9870    2.6930 C.3    59  ILE59       0.0001
     33  N         27.5870   22.5010    4.2150 N.3    62  ALA62      -0.1245
     34  CA        27.0500   22.1390    5.5250 C.3    62  ALA62       0.1562
     35  C         25.9380   21.0900    5.4060 C.2    62  ALA62       0.2260
     36  O         25.8380   20.1810    6.2290 O.2    62  ALA62      -0.2867
     37  CB        26.5220   23.3800    6.2370 C.3    62  ALA62       0.0290
     38  N         18.3790   21.9580    6.0970 N.3    93  LEU93      -0.1245
     39  CA        18.7040   23.3350    6.4430 C.3    93  LEU93       0.1561
     40  C         18.4240   23.6570    7.9130 C.2    93  LEU93       0.2260
     41  O         19.1510   24.4350    8.5350 O.2    93  LEU93      -0.2867
     42  CB        17.9420   24.3030    5.5400 C.3    93  LEU93       0.0270
     43  CG        18.4660   25.7440    5.4960 C.3    93  LEU93       0.0019
     44  CD1       19.9610   25.7530    5.1520 C.3    93  LEU93       0.0001
     45  CD2       17.6700   26.5350    4.4690 C.3    93  LEU93       0.0001
     46  N         21.2740   22.4130    9.7820 N.3    96  VAL96      -0.1231
     47  CA        22.4060   23.2960    9.5460 C.3    96  VAL96       0.1692
     48  C         22.2600   24.5280   10.4350 C.2    96  VAL96       0.2591
     49  O         23.2190   24.9850   11.0510 O.2    96  VAL96      -0.2718
     50  CB        22.4610   23.7620    8.0740 C.3    96  VAL96       0.0266
     51  CG1       23.5440   24.8290    7.9060 C.3    96  VAL96       0.0020
     52  CG2       22.7370   22.5740    7.1560 C.3    96  VAL96       0.0020
     53  N         21.0430   25.0570   10.4950 N.am   97  LEU97      -0.1980
     54  CA        20.7710   26.2370   11.2960 C.3    97  LEU97       0.1596
     55  C         21.0890   25.9940   12.7620 C.2    97  LEU97       0.2287
     56  O         21.6420   26.8730   13.4220 O.2    97  LEU97      -0.2864
     57  CB        19.3100   26.6640   11.1450 C.3    97  LEU97       0.0297
     58  CG        18.9050   27.9010   11.9540 C.3    97  LEU97       0.0022
     59  CD1       19.7980   29.0720   11.5720 C.3    97  LEU97       0.0001
     60  CD2       17.4390   28.2240   11.6900 C.3    97  LEU97       0.0001
     61  N         23.1420   23.6280   13.8960 N.3    99  ARG99      -0.1231
     62  CA        24.5870   23.4560   13.9570 C.3    99  ARG99       0.1694
     63  C         25.3730   24.7630   13.9080 C.2    99  ARG99       0.2591
     64  O         26.4740   24.8400   14.4450 O.2    99  ARG99      -0.2718
     65  CB        25.0630   22.5410   12.8360 C.3    99  ARG99       0.0321
     66  CG        24.8380   21.0760   13.1120 C.3    99  ARG99       0.0489
     67  CD        25.4010   20.2450   11.9900 C.3    99  ARG99       0.2205
     68  NE        25.5160   18.8530   12.3930 N.pl3  99  ARG99      -0.0865
     69  CZ        26.1660   17.9280   11.7020 C.cat  99  ARG99       0.5346
     70  NH1       26.7600   18.2470   10.5580 N.pl3  99  ARG99       0.1354
     71  NH2       26.2410   16.6920   12.1730 N.pl3  99  ARG99       0.1354
     72  N         24.8050   25.7850   13.2770 N.am  100  MET100     -0.1979
     73  CA        25.4700   27.0840   13.1690 C.3   100  MET100      0.1605
     74  C         25.7630   27.7080   14.5320 C.2   100  MET100      0.2287
     75  O         26.7310   28.4530   14.7010 O.2   100  MET100     -0.2864
     76  CB        24.6080   28.0460   12.3530 C.3   100  MET100      0.0413
     77  CG        25.2310   29.4120   12.1700 C.3   100  MET100      0.0598
     78  SD        24.0990   30.4600   11.2880 S.3   100  MET100     -0.1393
     79  CE        23.1470   31.0730   12.6040 C.3   100  MET100      0.0692
     80  N         29.1670   27.4380   15.8920 N.3   103  ALA103     -0.1245
     81  CA        30.1610   28.3540   15.3440 C.3   103  ALA103      0.1562
     82  C         29.6900   29.7960   15.3760 C.2   103  ALA103      0.2260
     83  O         29.8950   30.5490   14.4240 O.2   103  ALA103     -0.2867
     84  CB        30.5010   27.9530   13.9030 C.3   103  ALA103      0.0290
     85  N         29.6740   35.1540   13.3880 N.3   111  VAL111     -0.1231
     86  CA        29.5770   33.7610   13.0040 C.3   111  VAL111      0.1692
     87  C         30.7190   33.4020   12.0810 C.2   111  VAL111      0.2592
     88  O         31.2450   34.2560   11.3660 O.2   111  VAL111     -0.2718
     89  CB        28.2390   33.4600   12.2810 C.3   111  VAL111      0.0266
     90  CG1       28.1270   34.2940   11.0170 C.3   111  VAL111      0.0020
     91  CG2       28.1550   31.9830   11.9500 C.3   111  VAL111      0.0020
     92  N         31.1090   32.1320   12.1220 N.am  112  LEU112     -0.1966
     93  CA        32.1770   31.6260   11.2780 C.3   112  LEU112      0.1728
     94  C         31.6840   31.5280    9.8330 C.2   112  LEU112      0.2616
     95  O         30.6870   30.8700    9.5510 O.2   112  LEU112     -0.2715
     96  CB        32.6190   30.2430   11.7670 C.3   112  LEU112      0.0311
     97  CG        33.6600   29.5130   10.9210 C.3   112  LEU112      0.0022
     98  CD1       34.9550   30.3180   10.9280 C.3   112  LEU112      0.0001
     99  CD2       33.8960   28.1160   11.4750 C.3   112  LEU112      0.0001
    100  N         32.3890   32.1940    8.9250 N.am  113  PHE113     -0.1974
    101  CA        32.0370   32.1760    7.5080 C.3   113  PHE113      0.1639
    102  C         33.3270   32.2900    6.7020 C.2   113  PHE113      0.2290
    103  O         34.0450   33.2840    6.7870 O.2   113  PHE113     -0.2864
    104  CB        31.1080   33.3460    7.1720 C.3   113  PHE113      0.0560
    105  CG        30.6990   33.3970    5.7290 C.ar  113  PHE113     -0.0200
    106  CD1       29.7350   32.5220    5.2290 C.ar  113  PHE113     -0.0042
    107  CD2       31.2690   34.3250    4.8650 C.ar  113  PHE113     -0.0042
    108  CE1       29.3470   32.5760    3.8940 C.ar  113  PHE113     -0.0003
    109  CE2       30.8860   34.3830    3.5250 C.ar  113  PHE113     -0.0003
    110  CZ        29.9240   33.5090    3.0400 C.ar  113  PHE113     -0.0000
    111  N         27.1660   40.1970    5.5050 N.3   123  PHE123     -0.1241
    112  CA        26.2020   39.7170    4.5100 C.3   123  PHE123      0.1605
    113  C         25.3680   40.8120    3.8580 C.2   123  PHE123      0.2264
    114  O         24.3510   40.5360    3.2260 O.2   123  PHE123     -0.2867
    115  CB        25.2580   38.7170    5.1640 C.3   123  PHE123      0.0534
    116  CG        25.9600   37.5460    5.7790 C.ar  123  PHE123     -0.0203
    117  CD1       26.5730   36.5910    4.9790 C.ar  123  PHE123     -0.0042
    118  CD2       26.0370   37.4130    7.1600 C.ar  123  PHE123     -0.0042
    119  CE1       27.2630   35.5140    5.5470 C.ar  123  PHE123     -0.0003
    120  CE2       26.7220   36.3420    7.7370 C.ar  123  PHE123     -0.0003
    121  CZ        27.3370   35.3910    6.9280 C.ar  123  PHE123     -0.0000
    122  N         23.8170   40.4920    0.3560 N.3   126  LEU126     -0.1245
    123  CA        22.7090   39.5660    0.1190 C.3   126  LEU126      0.1561
    124  C         21.3910   40.3180   -0.0480 C.2   126  LEU126      0.2260
    125  O         20.4540   39.8070   -0.6440 O.2   126  LEU126     -0.2867
    126  CB        22.5480   38.5860    1.2790 C.3   126  LEU126      0.0270
    127  CG        23.5890   37.4950    1.5010 C.3   126  LEU126      0.0019
    128  CD1       23.1270   36.6160    2.6590 C.3   126  LEU126      0.0001
    129  CD2       23.7660   36.6730    0.2410 C.3   126  LEU126      0.0001
    130  N         16.5370   38.2100    6.8730 N.3   131  LEU131     -0.1231
    131  CA        16.9040   36.8090    6.9970 C.3   131  LEU131      0.1693
    132  C         18.1440   36.6680    7.8800 C.2   131  LEU131      0.2591
    133  O         18.1760   35.8560    8.7990 O.2   131  LEU131     -0.2718
    134  CB        17.1740   36.2120    5.6180 C.3   131  LEU131      0.0284
    135  CG        17.7190   34.7830    5.6290 C.3   131  LEU131      0.0019
    136  CD1       16.7050   33.8370    6.2760 C.3   131  LEU131      0.0001
    137  CD2       18.0210   34.3550    4.2060 C.3   131  LEU131      0.0001
    138  N         19.1650   37.4740    7.6100 N.am  132  VAL132     -0.1980
    139  CA        20.3880   37.4060    8.4030 C.3   132  VAL132      0.1595
    140  C         20.1080   37.6900    9.8840 C.2   132  VAL132      0.2287
    141  O         20.6110   36.9980   10.7700 O.2   132  VAL132     -0.2864
    142  CB        21.4480   38.4080    7.8930 C.3   132  VAL132      0.0276
    143  CG1       22.7180   38.2750    8.7170 C.3   132  VAL132      0.0022
    144  CG2       21.7320   38.1630    6.4110 C.3   132  VAL132      0.0022
    145  N         18.3650   34.7660   11.5060 N.3   135  ALA135     -0.1231
    146  CA        19.3040   33.6640   11.6840 C.3   135  ALA135      0.1694
    147  C         20.1930   33.9430   12.9060 C.2   135  ALA135      0.2592
    148  O         20.3860   33.0740   13.7640 O.2   135  ALA135     -0.2718
    149  CB        20.1580   33.4980   10.4420 C.3   135  ALA135      0.0304
    150  N         20.7200   35.1640   12.9870 N.am  136  PHE136     -0.1976
    151  CA        21.5810   35.5480   14.1050 C.3   136  PHE136      0.1639
    152  C         20.8200   35.5630   15.4370 C.2   136  PHE136      0.2290
    153  O         21.3480   35.1430   16.4660 O.2   136  PHE136     -0.2864
    154  CB        22.2010   36.9330   13.8640 C.3   136  PHE136      0.0560
    155  CG        23.4870   36.9060   13.0830 C.ar  136  PHE136     -0.0200
    156  CD1       23.5400   36.3480   11.8140 C.ar  136  PHE136     -0.0042
    157  CD2       24.6440   37.4800   13.6070 C.ar  136  PHE136     -0.0042
    158  CE1       24.7240   36.3660   11.0790 C.ar  136  PHE136     -0.0003
    159  CE2       25.8310   37.5030   12.8800 C.ar  136  PHE136     -0.0003
    160  CZ        25.8710   36.9450   11.6140 C.ar  136  PHE136     -0.0000
    161  N         12.7470   30.4570   10.0150 N.3   212  VAL212     -0.1231
    162  CA        13.9750   30.9950    9.4400 C.3   212  VAL212      0.1692
    163  C         14.2820   30.3280    8.1040 C.2   212  VAL212      0.2592
    164  O         14.5860   30.9970    7.1200 O.2   212  VAL212     -0.2718
    165  CB        15.1700   30.7970   10.4060 C.3   212  VAL212      0.0266
    166  CG1       16.4910   31.1460    9.7130 C.3   212  VAL212      0.0020
    167  CG2       14.9690   31.6550   11.6480 C.3   212  VAL212      0.0020
    168  N         14.1800   29.0060    8.0650 N.am  213  CYS213     -0.1970
    169  CA        14.4670   28.2820    6.8400 C.3   213  CYS213      0.1712
    170  C         13.4620   28.5730    5.7240 C.2   213  CYS213      0.2296
    171  O         13.8150   28.5600    4.5450 O.2   213  CYS213     -0.2864
    172  CB        14.5600   26.7820    7.1370 C.3   213  CYS213      0.0983
    173  SG        15.9940   26.3930    8.1770 S.3   213  CYS213     -0.0798
    174  N         14.4570   31.7210    4.1620 N.3   216  HIS216     -0.1241
    175  CA        15.5690   31.4960    3.2460 C.3   216  HIS216      0.1621
    176  C         14.9910   31.1140    1.8870 C.2   216  HIS216      0.2264
    177  O         15.4060   31.6330    0.8540 O.2   216  HIS216     -0.2867
    178  CB        16.4800   30.3770    3.7740 C.3   216  HIS216      0.0745
    179  CG        17.3570   29.7570    2.7260 C.ar  216  HIS216      0.0817
    180  ND1       17.0020   28.6170    2.0370 N.ar  216  HIS216     -0.2268
    181  CD2       18.5600   30.1320    2.2330 C.ar  216  HIS216      0.1154
    182  CE1       17.9450   28.3170    1.1640 C.ar  216  HIS216      0.1986
    183  NE2       18.9030   29.2210    1.2610 N.ar  216  HIS216     -0.2212
@<TRIPOS>BOND
     1   125   124    2
     2    10    11    1
     3   124   123    1
     4   123   122    1
     5   123   126    1
     6   129   127    1
     7    12    11    1
     8    12    13    2
     9    11    14    1
    10    16    17    1
    11   177   176    2
    12    14    15    1
    13   182   183   ar
    14   182   180   ar
    15   183   181   ar
    16   126   127    1
    17   127   128    1
    18   176   175    1
    19   180   179   ar
    20    17    18    1
    21    17    20    1
    22   181   179   ar
    23    27    26    1
    24    27    28    2
    25    25    18   am
    26    25    26    1
    27    29    31    1
    28    29    26    1
    29    29    30    1
    30    32    30    1
    31    18    19    2
    32   179   178    1
    33    20    21    1
    34   110   109   ar
    35   110   108   ar
    36   114   113    2
    37   175   178    1
    38   175   174    1
    39   109   107   ar
    40   113   112    1
    41    23    22    2
    42   108   106   ar
    43   137   135    1
    44    33    34    1
    45    21    22    1
    46    45    43    1
    47    22    24   am
    48   112   115    1
    49   112   111    1
    50   171   170    2
    51   107   105   ar
    52   117   119   ar
    53   117   116   ar
    54    44    43    1
    55   115   116    1
    56   106   105   ar
    57    35    34    1
    58    35    36    2
    59    43    42    1
    60    34    37    1
    61    42    39    1
    62   119   121   ar
    63   134   135    1
    64   134   131    1
    65   135   136    1
    66   170   169    1
    67   105   104    1
    68   116   118   ar
    69    38    39    1
    70     8     7    2
    71   144   142    1
    72    39    40    1
    73   102   103    2
    74   102   101    1
    75   169   172    1
    76   169   168    1
    77   130   131    1
    78   121   120   ar
    79   131   132    1
    80     7     9   am
    81     7     6    1
    82   164   163    2
    83   172   173    1
    84    52    50    1
    85   118   120   ar
    86   104   101    1
    87   101   100    1
    88   138   132   am
    89   138   139    1
    90   132   133    2
    91   142   139    1
    92   142   143    1
    93    51    50    1
    94    40    41    2
    95   168   163   am
    96    50    47    1
    97   163   162    1
    98     6     5    1
    99   139   140    1
   100     5     2    1
   101   100    94   am
   102   162   161    1
   103   162   165    1
   104    47    46    1
   105    47    48    1
   106    95    94    2
   107     2     1    1
   108     2     3    1
   109   166   165    1
   110    94    93    1
   111   140   141    2
   112     4     3    2
   113   165   167    1
   114    48    53   am
   115    48    49    2
   116   149   146    1
   117    53    54    1
   118    70    69    1
   119    97    98    1
   120    97    99    1
   121    97    96    1
   122    90    89    1
   123   158   160   ar
   124   158   156   ar
   125    57    54    1
   126    57    58    1
   127    93    96    1
   128    93    92    1
   129    78    77    1
   130    78    79    1
   131    54    55    1
   132    88    87    2
   133   145   146    1
   134    59    58    1
   135   160   159   ar
   136   146   147    1
   137    60    58    1
   138    69    71    1
   139    69    68    2
   140   156   155   ar
   141    91    89    1
   142    67    68    1
   143    67    66    1
   144    87    92   am
   145    87    86    1
   146    77    76    1
   147    89    86    1
   148    76    73    1
   149    55    56    2
   150    65    66    1
   151    65    62    1
   152   159   157   ar
   153   147   150   am
   154   147   148    2
   155   150   151    1
   156    86    85    1
   157   155   157   ar
   158   155   154    1
   159    73    72    1
   160    73    74    1
   161    72    63   am
   162   154   151    1
   163    61    62    1
   164    84    81    1
   165    63    62    1
   166    63    64    2
   167   151   152    1
   168    83    82    2
   169    74    75    2
   170    81    82    1
   171    81    80    1
   172   152   153    2
