@<TRIPOS>MOLECULE
tmp/1k4yA01.pdb
 148 142 0 0 0
SMALL
GASTEIGER

@<TRIPOS>ATOM
      1  N        -17.7620   97.7490  116.2450 N.3   231  SER231     -0.1217
      2  CA       -18.3310   98.9720  115.6960 C.3   231  SER231      0.1889
      3  C        -19.3790   98.7190  114.6190 C.2   231  SER231      0.2288
      4  O        -20.1420   99.6180  114.2530 O.2   231  SER231     -0.2866
      5  CB       -17.2150   99.8640  115.1410 C.3   231  SER231      0.2089
      6  OG       -16.4730   99.1940  114.1370 O.3   231  SER231     -0.2183
      7  N        -23.1330   98.0130  116.5430 N.3   234  PHE234     -0.1227
      8  CA       -23.6670   99.0160  117.4660 C.3   234  PHE234      0.1736
      9  C        -23.5550  100.4260  116.8820 C.2   234  PHE234      0.2595
     10  O        -22.5860  100.7550  116.1880 O.2   234  PHE234     -0.2718
     11  CB       -22.9440   98.9880  118.8160 C.3   234  PHE234      0.0547
     12  CG       -23.2980  100.1470  119.7050 C.ar  234  PHE234     -0.0202
     13  CD1      -24.4720  100.1410  120.4520 C.ar  234  PHE234     -0.0042
     14  CD2      -22.4910  101.2770  119.7450 C.ar  234  PHE234     -0.0042
     15  CE1      -24.8410  101.2430  121.2260 C.ar  234  PHE234     -0.0003
     16  CE2      -22.8480  102.3870  120.5130 C.ar  234  PHE234     -0.0003
     17  CZ       -24.0260  102.3700  121.2550 C.ar  234  PHE234     -0.0000
     18  N        -24.5540  101.2510  117.1860 N.am  235  ARG235     -0.1966
     19  CA       -24.6110  102.6340  116.7300 C.3   235  ARG235      0.1729
     20  C        -25.5250  103.3640  117.7130 C.2   235  ARG235      0.2616
     21  O        -26.6230  102.8990  117.9950 O.2   235  ARG235     -0.2715
     22  CB       -25.1840  102.6900  115.3060 C.3   235  ARG235      0.0348
     23  CG       -24.8990  103.9890  114.5560 C.3   235  ARG235      0.0492
     24  CD       -24.7630  103.7410  113.0460 C.3   235  ARG235      0.2205
     25  NE       -26.0310  103.8110  112.3140 N.pl3 235  ARG235     -0.0865
     26  CZ       -26.6470  104.9450  111.9780 C.cat 235  ARG235      0.5346
     27  NH1      -26.1160  106.1170  112.3080 N.pl3 235  ARG235      0.1354
     28  NH2      -27.7920  104.9060  111.3010 N.pl3 235  ARG235      0.1354
     29  N        -25.0720  104.4930  118.2490 N.am  236  LYS236     -0.1977
     30  CA       -25.8780  105.2480  119.2140 C.3   236  LYS236      0.1596
     31  C        -27.3010  105.5070  118.7340 C.2   236  LYS236      0.2287
     32  O        -28.2460  105.5170  119.5230 O.2   236  LYS236     -0.2864
     33  CB       -25.2270  106.5970  119.5310 C.3   236  LYS236      0.0298
     34  CG       -24.0700  106.5330  120.4990 C.3   236  LYS236      0.0038
     35  CD       -23.6390  107.9370  120.8990 C.3   236  LYS236      0.0206
     36  CE       -22.5830  107.9150  121.9920 C.3   236  LYS236      0.1093
     37  NZ       -22.1820  109.2920  122.3810 N.3   236  LYS236     -0.1314
     38  N        -26.9430  103.7230  128.3040 N.3   307  LYS307     -0.1245
     39  CA       -25.9440  104.5060  127.5830 C.3   307  LYS307      0.1561
     40  C        -25.1130  103.5630  126.7170 C.2   307  LYS307      0.2260
     41  O        -25.2660  102.3490  126.8030 O.2   307  LYS307     -0.2867
     42  CB       -25.0350  105.2260  128.5740 C.3   307  LYS307      0.0271
     43  CG       -24.1730  104.2840  129.3790 C.3   307  LYS307      0.0035
     44  CD       -23.3810  105.0110  130.4440 C.3   307  LYS307      0.0206
     45  CE       -24.2860  105.5470  131.5410 C.3   307  LYS307      0.1093
     46  NZ       -23.4920  106.1900  132.6330 N.3   307  LYS307     -0.1314
     47  N        -19.3480  101.2710  125.4690 N.3   310  ALA310     -0.1231
     48  CA       -18.0170  101.7390  125.8390 C.3   310  ALA310      0.1694
     49  C        -18.0230  102.4030  127.2160 C.2   310  ALA310      0.2591
     50  O        -17.1330  102.1820  128.0340 O.2   310  ALA310     -0.2718
     51  CB       -17.5010  102.7100  124.7920 C.3   310  ALA310      0.0304
     52  N        -19.0390  103.2150  127.4660 N.am  311  GLU311     -0.1979
     53  CA       -19.1660  103.9070  128.7330 C.3   311  GLU311      0.1602
     54  C        -19.5930  102.9960  129.8800 C.2   311  GLU311      0.2287
     55  O        -18.9780  103.0180  130.9450 O.2   311  GLU311     -0.2864
     56  CB       -20.1460  105.0620  128.5790 C.3   311  GLU311      0.0415
     57  CG       -19.6570  106.0850  127.5870 C.3   311  GLU311      0.1163
     58  CD       -20.6480  107.1900  127.3560 C.2   311  GLU311      0.3649
     59  OE1      -21.2010  107.7040  128.3510 O.co2 311  GLU311     -0.2457
     60  OE2      -20.8640  107.5530  126.1790 O.co2 311  GLU311     -0.2457
     61  N        -16.8230  101.4420  131.0740 N.3   314  ALA314     -0.1231
     62  CA       -15.9570  102.3610  131.7930 C.3   314  ALA314      0.1694
     63  C        -16.4130  102.5850  133.2290 C.2   314  ALA314      0.2591
     64  O        -15.5910  102.6900  134.1310 O.2   314  ALA314     -0.2718
     65  CB       -15.8910  103.6860  131.0570 C.3   314  ALA314      0.0304
     66  N        -17.7200  102.6600  133.4420 N.am  315  GLU315     -0.1979
     67  CA       -18.2550  102.8920  134.7760 C.3   315  GLU315      0.1602
     68  C        -17.9640  101.7210  135.7180 C.2   315  GLU315      0.2287
     69  O        -18.0370  101.8600  136.9400 O.2   315  GLU315     -0.2864
     70  CB       -19.7580  103.1450  134.6840 C.3   315  GLU315      0.0415
     71  CG       -20.3710  103.7540  135.9290 C.3   315  GLU315      0.1163
     72  CD       -21.7810  104.2790  135.6900 C.2   315  GLU315      0.3649
     73  OE1      -22.3840  104.8320  136.6360 O.co2 315  GLU315     -0.2457
     74  OE2      -22.2870  104.1440  134.5540 O.co2 315  GLU315     -0.2457
     75  N        -15.2820  101.0550  105.6000 N.3   347  TYR347     -0.1228
     76  CA       -15.4770  102.0090  106.6830 C.3   347  TYR347      0.1721
     77  C        -16.6350  101.6460  107.5890 C.2   347  TYR347      0.2437
     78  O        -16.4650  101.5080  108.7940 O.2   347  TYR347     -0.2733
     79  CB       -15.7220  103.4140  106.1430 C.3   347  TYR347      0.0547
     80  CG       -15.9730  104.4280  107.2370 C.ar  347  TYR347     -0.0200
     81  CD1      -14.9220  104.9510  107.9850 C.ar  347  TYR347     -0.0009
     82  CD2      -17.2670  104.8460  107.5410 C.ar  347  TYR347     -0.0009
     83  CE1      -15.1520  105.8660  109.0040 C.ar  347  TYR347      0.0417
     84  CE2      -17.5100  105.7590  108.5600 C.ar  347  TYR347      0.0417
     85  CZ       -16.4490  106.2670  109.2860 C.ar  347  TYR347      0.1957
     86  OH       -16.6870  107.1860  110.2870 O.3   347  TYR347     -0.2866
     87  N        -17.8380  101.4970  107.0230 N.am  348  PRO348     -0.2729
     88  CA       -18.9610  101.1520  107.8940 C.3   348  PRO348      0.1401
     89  C        -18.6390   99.9850  108.8190 C.2   348  PRO348      0.2269
     90  O        -18.9220  100.0370  110.0160 O.2   348  PRO348     -0.2865
     91  CB       -20.0800  100.8290  106.9010 C.3   348  PRO348      0.0296
     92  CG       -19.3410  100.3250  105.7070 C.3   348  PRO348      0.0237
     93  CD       -18.2060  101.3130  105.6090 C.3   348  PRO348      0.0939
     94  N        -14.9630  101.4510  110.6290 N.3   351  ASN351     -0.1240
     95  CA       -14.7560  102.8580  110.9600 C.3   351  ASN351      0.1653
     96  C        -13.2790  103.2120  111.0950 C.2   351  ASN351      0.2266
     97  O        -12.7290  103.2280  112.1950 O.2   351  ASN351     -0.2867
     98  CB       -15.4860  103.2380  112.2570 C.3   351  ASN351      0.1155
     99  CG       -15.2730  104.6980  112.6400 C.2   351  ASN351      0.2627
    100  OD1      -14.1380  105.1780  112.6340 O.2   351  ASN351     -0.2716
    101  ND2      -16.3490  105.4050  112.9820 N.am  351  ASN351     -0.0877
    102  N        -11.0980  106.2640  109.5210 N.3   353  SER353     -0.1217
    103  CA       -11.0480  107.4800  108.7110 C.3   353  SER353      0.1889
    104  C        -10.1570  107.2790  107.4950 C.2   353  SER353      0.2288
    105  O         -9.1540  106.5650  107.5670 O.2   353  SER353     -0.2866
    106  CB       -10.5210  108.6550  109.5450 C.3   353  SER353      0.2089
    107  OG       -11.3300  108.8830  110.6880 O.3   353  SER353     -0.2183
    108  N         -6.4560  107.9790  108.0610 N.3   356  LEU356     -0.1245
    109  CA        -5.7030  106.8750  108.6410 C.3   356  LEU356      0.1561
    110  C         -5.4650  105.7270  107.6710 C.2   356  LEU356      0.2260
    111  O         -4.3470  105.2330  107.5460 O.2   356  LEU356     -0.2867
    112  CB        -6.4330  106.3550  109.8790 C.3   356  LEU356      0.0270
    113  CG        -6.7590  107.4130  110.9340 C.3   356  LEU356      0.0019
    114  CD1       -7.3750  106.7500  112.1470 C.3   356  LEU356      0.0001
    115  CD2       -5.4980  108.1460  111.3310 C.3   356  LEU356      0.0001
    116  N        -10.8870   95.7110  130.1310 N.3   397  HIS397     -0.1241
    117  CA       -11.8970   96.4540  130.8710 C.3   397  HIS397      0.1621
    118  C        -12.4750   95.6010  132.0080 C.2   397  HIS397      0.2264
    119  O        -12.5530   96.0560  133.1500 O.2   397  HIS397     -0.2867
    120  CB       -13.0290   96.8920  129.9340 C.3   397  HIS397      0.0745
    121  CG       -12.7710   98.1910  129.2340 C.ar  397  HIS397      0.0817
    122  ND1      -12.8540   99.4080  129.8740 N.ar  397  HIS397     -0.2268
    123  CD2      -12.4320   98.4630  127.9520 C.ar  397  HIS397      0.1154
    124  CE1      -12.5800  100.3750  129.0170 C.ar  397  HIS397      0.1986
    125  NE2      -12.3210   99.8290  127.8440 N.ar  397  HIS397     -0.2212
    126  N         -5.4740  106.0270  116.7530 N.3   495  TRP495     -0.1241
    127  CA        -6.7230  106.7360  116.9820 C.3   495  TRP495      0.1605
    128  C         -6.5420  107.8000  118.0560 C.2   495  TRP495      0.2264
    129  O         -7.4500  108.5860  118.3290 O.2   495  TRP495     -0.2867
    130  CB        -7.8240  105.7590  117.3970 C.3   495  TRP495      0.0550
    131  CG        -8.3630  104.9110  116.2750 C.ar  495  TRP495      0.0003
    132  CD1       -8.7390  105.3390  115.0330 C.ar  495  TRP495      0.0946
    133  CD2       -8.6400  103.5040  116.3130 C.ar  495  TRP495      0.0152
    134  NE1       -9.2340  104.2880  114.2960 N.ar  495  TRP495     -0.2442
    135  CE2       -9.1840  103.1500  115.0570 C.ar  495  TRP495      0.0810
    136  CE3       -8.4820  102.5080  117.2870 C.ar  495  TRP495      0.0012
    137  CZ2       -9.5740  101.8430  114.7480 C.ar  495  TRP495      0.0191
    138  CZ3       -8.8710  101.2070  116.9800 C.ar  495  TRP495      0.0001
    139  CH2       -9.4100  100.8880  115.7190 C.ar  495  TRP495      0.0015
    140  N         -5.4440  111.4790  116.4770 N.3   498  GLU498     -0.1245
    141  CA        -6.5350  112.3050  115.9790 C.3   498  GLU498      0.1567
    142  C         -7.5510  112.5770  117.0850 C.2   498  GLU498      0.2260
    143  O         -8.7300  112.8020  116.8160 O.2   498  GLU498     -0.2867
    144  CB        -7.2290  111.6410  114.7820 C.3   498  GLU498      0.0388
    145  CG        -8.0040  110.3690  115.0940 C.3   498  GLU498      0.1160
    146  CD        -8.8610  109.9080  113.9210 C.2   498  GLU498      0.3649
    147  OE1       -8.3070  109.6970  112.8210 O.co2 498  GLU498     -0.2457
    148  OE2      -10.0890  109.7560  114.0970 O.co2 498  GLU498     -0.2457
@<TRIPOS>BOND
     1    75    76    1
     2    93    92    1
     3    93    87    1
     4    92    91    1
     5    79    76    1
     6    79    80    1
     7    76    77    1
     8    91    88    1
     9    87    77   am
    10    87    88    1
    11    80    82   ar
    12    80    81   ar
    13   104   105    2
    14   104   103    1
    15    82    84   ar
    16   111   110    2
    17    77    78    2
    18   110   109    1
    19    88    89    1
    20    81    83   ar
    21   108   109    1
    22    84    85   ar
    23   109   112    1
    24   103   102    1
    25   103   106    1
    26    89    90    2
    27    83    85   ar
    28    85    86    1
    29   106   107    1
    30   112   113    1
    31    94    95    1
    32   113   115    1
    33   113   114    1
    34    95    96    1
    35    95    98    1
    36    96    97    2
    37    28    26    1
    38    26    27    1
    39    26    25    2
    40    98    99    1
    41    25    24    1
    42   100    99    2
    43    99   101   am
    44   147   146   ar
    45    24    23    1
    46   146   148   ar
    47   146   145    1
    48     6     5    1
    49     4     3    2
    50   134   132   ar
    51   134   135   ar
    52    23    22    1
    53     3     2    1
    54   137   135   ar
    55   137   139   ar
    56   144   145    1
    57   144   141    1
    58   132   131   ar
    59   135   133   ar
    60     5     2    1
    61    22    19    1
    62     2     1    1
    63   139   138   ar
    64   141   140    1
    65   141   142    1
    66    10     9    2
    67   131   133   ar
    68   131   130    1
    69   133   136   ar
    70     7     8    1
    71    19    18    1
    72    19    20    1
    73   126   127    1
    74   143   142    2
    75     9    18   am
    76     9     8    1
    77   138   136   ar
    78   127   130    1
    79   127   128    1
    80     8    11    1
    81    20    21    2
    82    20    29   am
    83   128   129    2
    84    29    30    1
    85    31    30    1
    86    31    32    2
    87    11    12    1
    88    30    33    1
    89    33    34    1
    90    12    14   ar
    91    12    13   ar
    92    14    16   ar
    93    13    15   ar
    94    34    35    1
    95    16    17   ar
    96    35    36    1
    97    15    17   ar
    98    36    37    1
    99    51    48    1
   100    47    48    1
   101    48    49    1
   102    60    58   ar
   103    40    41    2
   104    40    39    1
   105    49    52   am
   106    49    50    2
   107    58    57    1
   108    58    59   ar
   109    52    53    1
   110    39    38    1
   111    39    42    1
   112    57    56    1
   113   125   123   ar
   114   125   124   ar
   115   123   121   ar
   116    42    43    1
   117    56    53    1
   118    53    54    1
   119   124   122   ar
   120   121   122   ar
   121   121   120    1
   122    43    44    1
   123    54    55    2
   124   120   117    1
   125   116   117    1
   126    44    45    1
   127   117   118    1
   128    65    62    1
   129    61    62    1
   130    45    46    1
   131    62    63    1
   132   118   119    2
   133    63    66   am
   134    63    64    2
   135    66    67    1
   136    74    72   ar
   137    70    67    1
   138    70    71    1
   139    67    68    1
   140    72    71    1
   141    72    73   ar
   142    68    69    2
