@<TRIPOS>MOLECULE
tmp/1k54B00.pdb
 130 126 0 0 0
SMALL
GASTEIGER

@<TRIPOS>ATOM
      1  N        -24.3860   19.7500  -19.6950 N.3    46  ALA46      -0.1231
      2  CA       -23.1520   20.4650  -20.0050 C.3    46  ALA46       0.1694
      3  C        -22.0080   19.5310  -19.6040 C.2    46  ALA46       0.2592
      4  O        -22.1120   18.3220  -19.7880 O.2    46  ALA46      -0.2718
      5  CB       -23.0990   21.8000  -19.2870 C.3    46  ALA46       0.0304
      6  N        -20.8460   19.9950  -19.2410 N.am   47  SER47      -0.1952
      7  CA       -19.6570   19.4050  -18.6790 C.3    47  SER47       0.1924
      8  C        -19.8010   18.2590  -17.6820 C.2    47  SER47       0.2314
      9  O        -18.9170   17.4110  -17.6050 O.2    47  SER47      -0.2863
     10  CB       -18.5520   20.4210  -18.3790 C.3    47  SER47       0.2116
     11  OG       -18.2180   21.0850  -19.6030 O.3    47  SER47      -0.2180
     12  N        -10.3070   26.4200  -28.1320 N.3    77  ALA77      -0.1231
     13  CA       -11.0840   27.5340  -27.5890 C.3    77  ALA77       0.1694
     14  C        -10.5160   28.0870  -26.2930 C.2    77  ALA77       0.2591
     15  O        -10.7100   29.2600  -25.9690 O.2    77  ALA77      -0.2718
     16  CB       -12.5210   27.1130  -27.3760 C.3    77  ALA77       0.0304
     17  N         -9.8340   27.2340  -25.5440 N.am   78  MET78      -0.1979
     18  CA        -9.2130   27.6550  -24.3010 C.3    78  MET78       0.1605
     19  C         -7.7400   27.3030  -24.3470 C.2    78  MET78       0.2287
     20  O         -7.3600   26.2080  -24.7570 O.2    78  MET78      -0.2864
     21  CB        -9.8940   26.9710  -23.1110 C.3    78  MET78       0.0413
     22  CG       -11.4140   27.1300  -23.0820 C.3    78  MET78       0.0598
     23  SD       -11.9730   28.8100  -22.6970 S.3    78  MET78      -0.1393
     24  CE       -11.4540   28.9540  -20.9880 C.3    78  MET78       0.0692
     25  N         -5.9210   26.7190  -21.9690 N.3    80  GLN80      -0.1231
     26  CA        -5.7130   25.6310  -21.0210 C.3    80  GLN80       0.1698
     27  C         -5.8340   24.2400  -21.6550 C.2    80  GLN80       0.2592
     28  O         -5.3890   23.2590  -21.0630 O.2    80  GLN80      -0.2718
     29  CB        -6.6850   25.7630  -19.8560 C.3    80  GLN80       0.0381
     30  CG        -8.0610   25.4470  -20.0890 C.3    80  GLN80       0.0905
     31  CD        -8.8700   25.7220  -18.7930 C.2    80  GLN80       0.2608
     32  OE1       -8.8510   26.8000  -18.2970 O.2    80  GLN80      -0.2717
     33  NE2       -9.6980   24.7790  -18.3870 N.am   80  GLN80      -0.0878
     34  N         -6.4410   24.1470  -22.8410 N.am   81  TRP81      -0.1976
     35  CA        -6.6150   22.8640  -23.5250 C.3    81  TRP81       0.1640
     36  C         -5.5250   22.5790  -24.5660 C.2    81  TRP81       0.2290
     37  O         -5.4600   21.4820  -25.1280 O.2    81  TRP81      -0.2864
     38  CB        -7.9750   22.8070  -24.2310 C.3    81  TRP81       0.0576
     39  CG        -9.1810   23.0130  -23.3660 C.ar   81  TRP81       0.0006
     40  CD1       -9.2590   22.8960  -22.0050 C.ar   81  TRP81       0.0946
     41  CD2      -10.4920   23.3730  -23.8110 C.ar   81  TRP81       0.0152
     42  NE1      -10.5400   23.1610  -21.5820 N.ar   81  TRP81      -0.2442
     43  CE2      -11.3180   23.4510  -22.6730 C.ar   81  TRP81       0.0810
     44  CE3      -11.0590   23.6300  -25.0660 C.ar   81  TRP81       0.0012
     45  CZ2      -12.6630   23.7860  -22.7500 C.ar   81  TRP81       0.0191
     46  CZ3      -12.3930   23.9570  -25.1380 C.ar   81  TRP81       0.0001
     47  CH2      -13.1840   24.0300  -23.9910 C.ar   81  TRP81       0.0015
     48  N        -10.0850   19.8110  -16.4780 N.3    93  VAL93      -0.1231
     49  CA       -10.0480   21.1090  -17.1640 C.3    93  VAL93       0.1692
     50  C        -11.2300   21.2670  -18.1380 C.2    93  VAL93       0.2592
     51  O        -11.3330   22.2730  -18.8320 O.2    93  VAL93      -0.2718
     52  CB        -8.6940   21.3880  -17.8970 C.3    93  VAL93       0.0266
     53  CG1       -7.5200   21.2710  -16.9320 C.3    93  VAL93       0.0020
     54  CG2       -8.4890   20.4880  -19.0950 C.3    93  VAL93       0.0020
     55  N        -12.1170   20.2730  -18.1630 N.am   94  SER94      -0.1952
     56  CA       -13.3020   20.2640  -19.0190 C.3    94  SER94       0.1924
     57  C        -12.9390   20.4800  -20.4840 C.2    94  SER94       0.2314
     58  O        -13.4970   21.3580  -21.1390 O.2    94  SER94      -0.2863
     59  CB       -14.3250   21.3200  -18.5930 C.3    94  SER94       0.2116
     60  OG       -14.8060   21.1190  -17.2760 O.3    94  SER94      -0.2180
     61  N        -13.5380   20.0690  -23.6820 N.3    96  VAL96      -0.1245
     62  CA       -14.6310   19.7080  -24.5710 C.3    96  VAL96       0.1561
     63  C        -14.2140   18.9730  -25.8660 C.2    96  VAL96       0.2260
     64  O        -14.7960   17.9500  -26.1840 O.2    96  VAL96      -0.2867
     65  CB       -15.4970   20.9380  -24.9100 C.3    96  VAL96       0.0252
     66  CG1      -16.6750   20.5340  -25.7940 C.3    96  VAL96       0.0019
     67  CG2      -16.0110   21.6070  -23.6370 C.3    96  VAL96       0.0019
     68  N        -25.1760   17.0410  -25.4520 N.3   133  TRP133     -0.1227
     69  CA       -25.1540   17.3700  -24.0330 C.3   133  TRP133      0.1737
     70  C        -24.8800   18.8420  -23.7230 C.2   133  TRP133      0.2595
     71  O        -24.9840   19.2550  -22.5700 O.2   133  TRP133     -0.2718
     72  CB       -24.1240   16.4920  -23.3150 C.3   133  TRP133      0.0564
     73  CG       -22.7000   16.7760  -23.6900 C.ar  133  TRP133      0.0003
     74  CD1      -21.8340   17.6070  -23.0350 C.ar  133  TRP133      0.0946
     75  CD2      -21.9520   16.1960  -24.7690 C.ar  133  TRP133      0.0152
     76  NE1      -20.6080   17.5950  -23.6540 N.ar  133  TRP133     -0.2442
     77  CE2      -20.6540   16.7370  -24.7200 C.ar  133  TRP133      0.0810
     78  CE3      -22.2510   15.2820  -25.7820 C.ar  133  TRP133      0.0012
     79  CZ2      -19.6640   16.4000  -25.6400 C.ar  133  TRP133      0.0191
     80  CZ3      -21.2680   14.9480  -26.6950 C.ar  133  TRP133      0.0001
     81  CH2      -19.9870   15.5010  -26.6130 C.ar  133  TRP133      0.0015
     82  N        -24.5440   19.6390  -24.7370 N.am  134  LEU134     -0.1980
     83  CA       -24.2530   21.0510  -24.4990 C.3   134  LEU134      0.1596
     84  C        -25.2140   21.9970  -25.2010 C.2   134  LEU134      0.2287
     85  O        -25.4210   23.1170  -24.7410 O.2   134  LEU134     -0.2864
     86  CB       -22.8280   21.4010  -24.9160 C.3   134  LEU134      0.0297
     87  CG       -22.3750   21.0070  -26.3110 C.3   134  LEU134      0.0022
     88  CD1      -21.5420   22.1200  -26.9530 C.3   134  LEU134      0.0001
     89  CD2      -21.5920   19.7130  -26.2310 C.3   134  LEU134      0.0001
     90  N        -20.2460   22.1170  -14.4100 N.3   186  GLY186     -0.1210
     91  CA       -20.8230   22.2640  -15.7380 C.3   186  GLY186      0.1956
     92  C        -21.2790   23.7020  -15.9200 C.2   186  GLY186      0.2612
     93  O        -21.6320   24.3650  -14.9490 O.2   186  GLY186     -0.2717
     94  N        -21.2600   24.1820  -17.1640 N.am  187  PHE187     -0.1962
     95  CA       -21.7000   25.5350  -17.5050 C.3   187  PHE187      0.1771
     96  C        -22.1380   25.5360  -18.9700 C.2   187  PHE187      0.2620
     97  O        -21.3020   25.4570  -19.8580 O.2   187  PHE187     -0.2715
     98  CB       -20.5460   26.5110  -17.2900 C.3   187  PHE187      0.0574
     99  CG       -20.8330   27.9190  -17.7250 C.ar  187  PHE187     -0.0200
    100  CD1      -22.0510   28.5120  -17.4570 C.ar  187  PHE187     -0.0042
    101  CD2      -19.8580   28.6600  -18.3760 C.ar  187  PHE187     -0.0042
    102  CE1      -22.3020   29.8120  -17.8370 C.ar  187  PHE187     -0.0003
    103  CE2      -20.1140   29.9560  -18.7680 C.ar  187  PHE187     -0.0003
    104  CZ       -21.3330   30.5300  -18.4960 C.ar  187  PHE187     -0.0000
    105  N        -23.4380   25.6230  -19.2280 N.am  188  SER188     -0.1950
    106  CA       -23.9380   25.5120  -20.6040 C.3   188  SER188      0.1924
    107  C        -23.7150   26.7790  -21.4270 C.2   188  SER188      0.2314
    108  O        -23.7470   26.7400  -22.6670 O.2   188  SER188     -0.2863
    109  CB       -25.4300   25.1750  -20.6120 C.3   188  SER188      0.2116
    110  OG       -26.2120   26.2940  -20.2470 O.3   188  SER188     -0.2180
    111  N        -21.4830   35.3470  -16.8390 N.3   223  GLU223     -0.1245
    112  CA       -20.3370   34.5310  -16.4600 C.3   223  GLU223      0.1567
    113  C        -19.7500   34.9280  -15.1110 C.2   223  GLU223      0.2260
    114  O        -19.1330   34.1130  -14.4380 O.2   223  GLU223     -0.2867
    115  CB       -19.2470   34.6100  -17.5330 C.3   223  GLU223      0.0388
    116  CG       -18.4330   33.3390  -17.6600 C.3   223  GLU223      0.1160
    117  CD       -17.6090   33.2690  -18.9340 C.2   223  GLU223      0.3649
    118  OE1      -18.1360   33.5720  -20.0240 O.co2 223  GLU223     -0.2457
    119  OE2      -16.4230   32.8950  -18.8390 O.co2 223  GLU223     -0.2457
    120  N        -21.7980   28.5600   -8.2060 N.3   229  ARG229     -0.1245
    121  CA       -22.1580   27.1440   -8.3780 C.3   229  ARG229      0.1563
    122  C        -21.4310   26.2450   -7.3730 C.2   229  ARG229      0.2260
    123  O        -21.8770   25.1340   -7.0970 O.2   229  ARG229     -0.2867
    124  CB       -21.8990   26.6600   -9.8030 C.3   229  ARG229      0.0307
    125  CG       -20.4340   26.5110  -10.1430 C.3   229  ARG229      0.0489
    126  CD       -20.1800   26.2380  -11.6050 C.3   229  ARG229      0.2205
    127  NE       -18.7630   26.2810  -11.9470 N.pl3 229  ARG229     -0.0865
    128  CZ       -18.2670   26.0040  -13.1550 C.cat 229  ARG229      0.5346
    129  NH1      -16.9580   26.0820  -13.3690 N.pl3 229  ARG229      0.1354
    130  NH2      -19.0720   25.6540  -14.1530 N.pl3 229  ARG229      0.1354
@<TRIPOS>BOND
     1    12    13    1
     2    13    16    1
     3    13    14    1
     4    88    87    1
     5    80    81   ar
     6    80    78   ar
     7    81    79   ar
     8    87    89    1
     9    87    86    1
    10    14    15    2
    11    14    17   am
    12    64    63    2
    13    63    62    1
    14    66    65    1
    15    78    75   ar
    16    79    77   ar
    17    17    18    1
    18    68    69    1
    19    84    85    2
    20    84    83    1
    21    46    44   ar
    22    46    47   ar
    23    37    36    2
    24    44    41   ar
    25    86    83    1
    26    65    62    1
    27    65    67    1
    28    75    77   ar
    29    75    73   ar
    30    20    19    2
    31    82    83    1
    32    82    70   am
    33    77    76   ar
    34    62    61    1
    35    36    35    1
    36    19    18    1
    37    18    21    1
    38    38    35    1
    39    38    39    1
    40    69    70    1
    41    69    72    1
    42    47    45   ar
    43    41    39   ar
    44    41    43   ar
    45    70    71    2
    46    73    72    1
    47    73    74   ar
    48    76    74   ar
    49    35    34    1
    50    39    40   ar
    51    21    22    1
    52    22    23    1
    53    34    27   am
    54    45    43   ar
    55    23    24    1
    56    43    42   ar
    57   108   107    2
    58    40    42   ar
    59    25    26    1
    60    27    28    2
    61    27    26    1
    62   107   106    1
    63    58    57    2
    64    26    29    1
    65   109   106    1
    66   109   110    1
    67   106   105    1
    68    57    56    1
    69    30    29    1
    70    30    31    1
    71   118   117   ar
    72     2     1    1
    73     2     3    1
    74     2     5    1
    75    97    96    2
    76     4     3    2
    77     3     6   am
    78    11    10    1
    79     6     7    1
    80   105    96   am
    81    54    52    1
    82    56    59    1
    83    56    55    1
    84    96    95    1
    85   117   119   ar
    86   117   116    1
    87    51    50    2
    88    31    33   am
    89    31    32    2
    90   103   104   ar
    91   103   101   ar
    92     7    10    1
    93     7     8    1
    94    59    60    1
    95   104   102   ar
    96   101    99   ar
    97    55    50   am
    98    50    49    1
    99    52    49    1
   100    52    53    1
   101   102   100   ar
   102    99   100   ar
   103    99    98    1
   104     8     9    2
   105   116   115    1
   106   115   112    1
   107    95    98    1
   108    95    94    1
   109    49    48    1
   110    94    92   am
   111   111   112    1
   112   112   113    1
   113    92    91    1
   114    92    93    2
   115    91    90    1
   116   113   114    2
   117   130   128    1
   118   129   128    1
   119   128   127    2
   120   127   126    1
   121   126   125    1
   122   125   124    1
   123   124   121    1
   124   121   120    1
   125   121   122    1
   126   122   123    2
