@<TRIPOS>MOLECULE
tmp/1k5mA00.pdb
 224 212 0 0 0
SMALL
GASTEIGER

@<TRIPOS>ATOM
      1  N         30.3790   61.0380  118.6990 N.3    98  ILE98      -0.1231
      2  CA        29.6430   59.9120  118.1620 C.3    98  ILE98       0.1692
      3  C         30.2800   58.5360  118.3650 C.2    98  ILE98       0.2592
      4  O         31.3660   58.2610  117.8610 O.2    98  ILE98      -0.2718
      5  CB        29.3650   60.1090  116.6780 C.3    98  ILE98       0.0266
      6  CG1       28.7370   61.4800  116.4440 C.3    98  ILE98       0.0019
      7  CG2       28.4590   59.0130  116.1650 C.3    98  ILE98       0.0020
      8  CD1       28.6720   61.8700  115.0170 C.3    98  ILE98       0.0001
      9  N         29.5080   57.6350  118.9660 N.am   99  ASN99      -0.1960
     10  CA        29.9300   56.2520  119.1870 C.3    99  ASN99       0.1819
     11  C         28.7160   55.4480  119.6410 C.2    99  ASN99       0.2621
     12  O         27.7170   56.0170  120.0650 O.2    99  ASN99      -0.2715
     13  CB        31.0380   56.1770  120.2420 C.3    99  ASN99       0.1195
     14  CG        30.5090   56.3390  121.6460 C.2    99  ASN99       0.2630
     15  OD1       30.2350   57.4520  122.0960 O.2    99  ASN99      -0.2716
     16  ND2       30.3600   55.2280  122.3510 N.am   99  ASN99      -0.0877
     17  N         28.7570   54.1450  119.4250 N.am  100  LEU100     -0.1963
     18  CA        27.6580   53.2640  119.8200 C.3   100  LEU100      0.1728
     19  C         28.0550   52.3830  121.0240 C.2   100  LEU100      0.2616
     20  O         27.6000   51.2470  121.1390 O.2   100  LEU100     -0.2715
     21  CB        27.2520   52.3670  118.6340 C.3   100  LEU100      0.0311
     22  CG        26.2280   52.8840  117.6070 C.3   100  LEU100      0.0022
     23  CD1       26.3350   54.3730  117.3950 C.3   100  LEU100      0.0001
     24  CD2       26.3880   52.1460  116.3010 C.3   100  LEU100      0.0001
     25  N         28.9110   52.9040  121.9020 N.am  101  SER101     -0.1950
     26  CA        29.3950   52.1230  123.0510 C.3   101  SER101      0.1924
     27  C         29.0140   52.6860  124.4040 C.2   101  SER101      0.2314
     28  O         29.4030   52.1370  125.4310 O.2   101  SER101     -0.2863
     29  CB        30.9160   51.9870  123.0000 C.3   101  SER101      0.2116
     30  OG        31.3450   51.5150  121.7470 O.3   101  SER101     -0.2180
     31  N         25.2750   48.0430  122.5550 N.3   107  ARG107     -0.1245
     32  CA        26.6830   47.7080  122.5230 C.3   107  ARG107      0.1563
     33  C         26.8800   46.2080  122.5520 C.2   107  ARG107      0.2260
     34  O         27.6390   45.6620  121.7490 O.2   107  ARG107     -0.2867
     35  CB        27.4370   48.3580  123.6800 C.3   107  ARG107      0.0307
     36  CG        28.9380   48.0750  123.6460 C.3   107  ARG107      0.0489
     37  CD        29.6580   48.7700  124.7520 C.3   107  ARG107      0.2205
     38  NE        31.0680   48.3950  124.8040 N.pl3 107  ARG107     -0.0865
     39  CZ        31.9770   49.0010  125.5630 C.cat 107  ARG107      0.5346
     40  NH1       31.6280   50.0170  126.3380 N.pl3 107  ARG107      0.1354
     41  NH2       33.2300   48.5780  125.5590 N.pl3 107  ARG107      0.1354
     42  N         25.9420   44.5580  119.1340 N.3   110  LEU110     -0.1231
     43  CA        26.9400   44.7820  118.1010 C.3   110  LEU110      0.1693
     44  C         28.1800   43.9410  118.3460 C.2   110  LEU110      0.2591
     45  O         28.7360   43.3570  117.4160 O.2   110  LEU110     -0.2718
     46  CB        27.3330   46.2540  118.0460 C.3   110  LEU110      0.0284
     47  CG        26.3260   47.2290  117.4490 C.3   110  LEU110      0.0019
     48  CD1       26.7640   48.6480  117.7330 C.3   110  LEU110      0.0001
     49  CD2       26.1860   47.0040  115.9470 C.3   110  LEU110      0.0001
     50  N         28.5930   43.8560  119.6060 N.am  111  GLU111     -0.1979
     51  CA        29.8020   43.1360  119.9650 C.3   111  GLU111      0.1602
     52  C         29.7260   41.6230  119.8230 C.2   111  GLU111      0.2287
     53  O         30.7130   40.9250  120.0140 O.2   111  GLU111     -0.2864
     54  CB        30.2810   43.5470  121.3380 C.3   111  GLU111      0.0415
     55  CG        30.6810   45.0020  121.3960 C.3   111  GLU111      0.1163
     56  CD        31.3130   45.3890  122.7020 C.2   111  GLU111      0.3649
     57  OE1       31.1600   44.6330  123.6990 O.co2 111  GLU111     -0.2457
     58  OE2       31.9610   46.4590  122.7430 O.co2 111  GLU111     -0.2457
     59  N         31.3210   44.7580  111.2580 N.3   116  VAL116     -0.1245
     60  CA        29.9570   45.0020  110.8150 C.3   116  VAL116      0.1561
     61  C         29.9370   46.1250  109.8070 C.2   116  VAL116      0.2260
     62  O         30.7160   47.0630  109.8980 O.2   116  VAL116     -0.2867
     63  CB        29.0100   45.3550  111.9940 C.3   116  VAL116      0.0252
     64  CG1       28.6770   44.1190  112.7860 C.3   116  VAL116      0.0019
     65  CG2       29.6420   46.4130  112.8970 C.3   116  VAL116      0.0019
     66  N         27.0750   48.4900  107.7000 N.3   118  PHE118     -0.1241
     67  CA        25.6720   48.8260  107.5460 C.3   118  PHE118      0.1605
     68  C         25.4500   50.3140  107.3530 C.2   118  PHE118      0.2264
     69  O         26.3580   51.1060  107.5290 O.2   118  PHE118     -0.2867
     70  CB        24.8670   48.3340  108.7740 C.3   118  PHE118      0.0534
     71  CG        25.4140   48.8200  110.1010 C.ar  118  PHE118     -0.0203
     72  CD1       25.3400   50.1630  110.4500 C.ar  118  PHE118     -0.0042
     73  CD2       26.0270   47.9370  110.9810 C.ar  118  PHE118     -0.0042
     74  CE1       25.8760   50.6240  111.6520 C.ar  118  PHE118     -0.0003
     75  CE2       26.5660   48.3890  112.1890 C.ar  118  PHE118     -0.0003
     76  CZ        26.4910   49.7370  112.5220 C.ar  118  PHE118     -0.0000
     77  N         23.1340   53.6550  108.4170 N.3   120  SER120     -0.1217
     78  CA        22.5210   54.0660  109.6630 C.3   120  SER120      0.1889
     79  C         21.2930   54.9190  109.4770 C.2   120  SER120      0.2288
     80  O         21.2290   55.7510  108.5750 O.2   120  SER120     -0.2866
     81  CB        23.5280   54.8230  110.5240 C.3   120  SER120      0.2089
     82  OG        24.4660   53.9500  111.0990 O.3   120  SER120     -0.2183
     83  N         19.1480   57.4460  111.8300 N.3   122  TYR122     -0.1241
     84  CA        19.0960   58.1490  113.0980 C.3   122  TYR122      0.1605
     85  C         17.7680   58.8210  113.3400 C.2   122  TYR122      0.2264
     86  O         17.1750   59.3990  112.4250 O.2   122  TYR122     -0.2867
     87  CB        20.1920   59.1920  113.1620 C.3   122  TYR122      0.0534
     88  CG        21.5240   58.6310  113.4950 C.ar  122  TYR122     -0.0201
     89  CD1       21.8500   58.3040  114.8100 C.ar  122  TYR122     -0.0009
     90  CD2       22.4650   58.3740  112.4950 C.ar  122  TYR122     -0.0009
     91  CE1       23.0710   57.7360  115.1240 C.ar  122  TYR122      0.0417
     92  CE2       23.6910   57.8010  112.7990 C.ar  122  TYR122      0.0417
     93  CZ        23.9890   57.4850  114.1180 C.ar  122  TYR122      0.1957
     94  OH        25.1880   56.9110  114.4300 O.3   122  TYR122     -0.2866
     95  N         20.6930   70.4150  115.1970 N.3   144  ALA144     -0.1245
     96  CA        21.6910   69.3690  115.3670 C.3   144  ALA144      0.1562
     97  C         22.6290   69.4420  114.1770 C.2   144  ALA144      0.2260
     98  O         22.1980   69.3090  113.0350 O.2   144  ALA144     -0.2867
     99  CB        21.0260   68.0060  115.4340 C.3   144  ALA144      0.0290
    100  N         26.2540   68.1480  112.3720 N.3   146  TYR146     -0.1241
    101  CA        27.3050   67.1560  112.3360 C.3   146  TYR146      0.1605
    102  C         28.6300   67.8320  112.0970 C.2   146  TYR146      0.2264
    103  O         28.8230   68.4690  111.0790 O.2   146  TYR146     -0.2867
    104  CB        27.0470   66.1370  111.2280 C.3   146  TYR146      0.0534
    105  CG        28.1330   65.1060  111.1140 C.ar  146  TYR146     -0.0201
    106  CD1       28.7360   64.5750  112.2520 C.ar  146  TYR146     -0.0009
    107  CD2       28.5780   64.6720  109.8730 C.ar  146  TYR146     -0.0009
    108  CE1       29.7580   63.6470  112.1600 C.ar  146  TYR146      0.0417
    109  CE2       29.5990   63.7280  109.7660 C.ar  146  TYR146      0.0417
    110  CZ        30.1880   63.2230  110.9160 C.ar  146  TYR146      0.1957
    111  OH        31.1960   62.3130  110.8330 O.3   146  TYR146     -0.2866
    112  N         26.3760   69.0600  107.4030 N.3   168  PRO168     -0.2102
    113  CA        24.9340   68.8180  107.3240 C.3   168  PRO168      0.1504
    114  C         24.3100   69.0670  108.7160 C.2   168  PRO168      0.2576
    115  O         24.9580   68.8270  109.7430 O.2   168  PRO168     -0.2718
    116  CB        24.8530   67.3270  106.9520 C.3   168  PRO168      0.0282
    117  CG        26.1750   66.7640  107.3700 C.3   168  PRO168      0.0208
    118  CD        27.1450   67.8530  107.0770 C.3   168  PRO168      0.0893
    119  N         23.1410   69.6850  108.7440 N.am  169  SER169     -0.1938
    120  CA        22.4430   69.8890  110.0040 C.3   169  SER169      0.2055
    121  C         20.9280   69.8360  109.8440 C.2   169  SER169      0.2642
    122  O         20.4140   69.8960  108.7190 O.2   169  SER169     -0.2714
    123  CB        22.9090   71.1810  110.7180 C.3   169  SER169      0.2130
    124  OG        22.6540   72.3240  109.9610 O.3   169  SER169     -0.2179
    125  N         20.2410   69.5060  110.9410 N.am  170  VAL170     -0.1977
    126  CA        18.7760   69.4120  110.9530 C.3   170  VAL170      0.1596
    127  C         18.2040   70.4030  111.9250 C.2   170  VAL170      0.2287
    128  O         18.7440   70.6030  113.0080 O.2   170  VAL170     -0.2864
    129  CB        18.2700   68.0110  111.4190 C.3   170  VAL170      0.0276
    130  CG1       17.0650   67.5850  110.6090 C.3   170  VAL170      0.0022
    131  CG2       19.3550   66.9920  111.3560 C.3   170  VAL170      0.0022
    132  N         16.9800   60.8640  109.7710 N.3   180  PHE180     -0.1241
    133  CA        17.7820   60.8690  108.5640 C.3   180  PHE180      0.1605
    134  C         18.6450   59.6170  108.4370 C.2   180  PHE180      0.2264
    135  O         18.9320   58.9410  109.4240 O.2   180  PHE180     -0.2867
    136  CB        18.6570   62.1240  108.4980 C.3   180  PHE180      0.0534
    137  CG        19.5350   62.3070  109.6900 C.ar  180  PHE180     -0.0203
    138  CD1       20.7780   61.6870  109.7550 C.ar  180  PHE180     -0.0042
    139  CD2       19.1210   63.0990  110.7630 C.ar  180  PHE180     -0.0042
    140  CE1       21.5960   61.8470  110.8600 C.ar  180  PHE180     -0.0003
    141  CE2       19.9400   63.2680  111.8820 C.ar  180  PHE180     -0.0003
    142  CZ        21.1810   62.6410  111.9320 C.ar  180  PHE180     -0.0000
    143  N         22.2070   57.6770  106.9890 N.3   182  VAL182     -0.1245
    144  CA        23.6280   57.9230  106.8030 C.3   182  VAL182      0.1561
    145  C         24.1980   56.6820  106.1670 C.2   182  VAL182      0.2260
    146  O         23.9470   55.5820  106.6330 O.2   182  VAL182     -0.2867
    147  CB        24.3330   58.1730  108.1450 C.3   182  VAL182      0.0252
    148  CG1       25.8150   58.2800  107.9380 C.3   182  VAL182      0.0019
    149  CG2       23.7960   59.4390  108.8060 C.3   182  VAL182      0.0019
    150  N         29.8960   54.8510  106.4570 N.3   185  VAL185     -0.1245
    151  CA        30.9520   55.8600  106.3370 C.3   185  VAL185      0.1561
    152  C         32.3350   55.4660  106.8600 C.2   185  VAL185      0.2260
    153  O         33.1660   56.3350  107.1130 O.2   185  VAL185     -0.2867
    154  CB        30.5480   57.2000  107.0170 C.3   185  VAL185      0.0252
    155  CG1       29.4070   57.8610  106.2730 C.3   185  VAL185      0.0019
    156  CG2       30.1890   56.9730  108.4500 C.3   185  VAL185      0.0019
    157  N         33.1380   48.2590  109.7030 N.3   191  TYR191     -0.1227
    158  CA        33.4510   48.8530  110.9950 C.3   191  TYR191      0.1736
    159  C         34.0810   47.7740  111.8640 C.2   191  TYR191      0.2595
    160  O         33.7820   46.5890  111.7110 O.2   191  TYR191     -0.2718
    161  CB        32.1850   49.3500  111.6950 C.3   191  TYR191      0.0548
    162  CG        31.4580   50.4800  111.0080 C.ar  191  TYR191     -0.0200
    163  CD1       32.0980   51.6830  110.7240 C.ar  191  TYR191     -0.0009
    164  CD2       30.0920   50.3780  110.7240 C.ar  191  TYR191     -0.0009
    165  CE1       31.3960   52.7640  110.1730 C.ar  191  TYR191      0.0417
    166  CE2       29.3800   51.4490  110.1800 C.ar  191  TYR191      0.0417
    167  CZ        30.0330   52.6340  109.9040 C.ar  191  TYR191      0.1957
    168  OH        29.3420   53.6710  109.3410 O.3   191  TYR191     -0.2866
    169  N         34.8970   48.1880  112.8120 N.am  192  ASN192     -0.1960
    170  CA        35.5140   47.2570  113.7370 C.3   192  ASN192      0.1819
    171  C         34.8030   47.3670  115.0640 C.2   192  ASN192      0.2621
    172  O         34.4970   48.4640  115.5120 O.2   192  ASN192     -0.2715
    173  CB        36.9880   47.6090  113.9410 C.3   192  ASN192      0.1195
    174  CG        37.8940   46.8130  113.0530 C.2   192  ASN192      0.2630
    175  OD1       37.6930   46.7360  111.8500 O.2   192  ASN192     -0.2716
    176  ND2       38.8880   46.1720  113.6560 N.am  192  ASN192     -0.0877
    177  N         34.4330   46.2330  115.6410 N.am  193  CYS193     -0.1968
    178  CA        33.8280   46.2410  116.9690 C.3   193  CYS193      0.1712
    179  C         34.9470   46.0900  117.9810 C.2   193  CYS193      0.2296
    180  O         34.8400   46.5270  119.1240 O.2   193  CYS193     -0.2864
    181  CB        32.8310   45.1070  117.1180 C.3   193  CYS193      0.0983
    182  SG        31.3720   45.3130  116.1240 S.3   193  CYS193     -0.0798
    183  N         39.7470   49.8210  120.1460 N.3   209  ILE209     -0.1245
    184  CA        38.8540   50.3280  119.1330 C.3   209  ILE209      0.1561
    185  C         38.7910   51.8570  119.1000 C.2   209  ILE209      0.2260
    186  O         38.4250   52.4390  118.0830 O.2   209  ILE209     -0.2867
    187  CB        37.4340   49.7290  119.2810 C.3   209  ILE209      0.0252
    188  CG1       36.6030   50.0230  118.0420 C.3   209  ILE209      0.0019
    189  CG2       36.7630   50.2500  120.5240 C.3   209  ILE209      0.0019
    190  CD1       37.2350   49.5330  116.7720 C.3   209  ILE209      0.0001
    191  N         37.7620   54.5390  116.0910 N.3   213  ASN213     -0.1240
    192  CA        36.5530   55.3380  116.2630 C.3   213  ASN213      0.1653
    193  C         36.8780   56.8240  116.2260 C.2   213  ASN213      0.2266
    194  O         37.1480   57.4450  117.2580 O.2   213  ASN213     -0.2867
    195  CB        35.8320   54.9870  117.5660 C.3   213  ASN213      0.1155
    196  CG        34.6090   55.8670  117.8020 C.2   213  ASN213      0.2627
    197  OD1       34.5630   56.6500  118.7660 O.2   213  ASN213     -0.2716
    198  ND2       33.6440   55.8070  116.8740 N.am  213  ASN213     -0.0877
    199  N         34.8970   59.1300  114.2550 N.3   215  MET215     -0.1245
    200  CA        33.7940   59.7990  113.5770 C.3   215  MET215      0.1570
    201  C         33.8330   61.2390  114.0800 C.2   215  MET215      0.2261
    202  O         34.7830   61.6420  114.7530 O.2   215  MET215     -0.2867
    203  CB        32.4550   59.1610  113.9580 C.3   215  MET215      0.0387
    204  CG        32.4870   57.6420  114.0860 C.3   215  MET215      0.0595
    205  SD        32.2650   56.7800  112.5200 S.3   215  MET215     -0.1393
    206  CE        33.8610   55.8040  112.4170 C.3   215  MET215      0.0692
    207  N         28.4020   65.5470  117.2600 N.3   218  MET218     -0.1245
    208  CA        27.1240   66.1200  116.9530 C.3   218  MET218      0.1570
    209  C         26.9080   67.2950  117.8910 C.2   218  MET218      0.2261
    210  O         26.9250   67.1310  119.1010 O.2   218  MET218     -0.2867
    211  CB        26.0280   65.1020  117.1420 C.3   218  MET218      0.0387
    212  CG        24.8650   65.3350  116.2730 C.3   218  MET218      0.0595
    213  SD        24.8310   64.1930  114.9520 S.3   218  MET218     -0.1393
    214  CE        23.5790   62.9120  115.6320 C.3   218  MET218      0.0692
    215  N         19.5600   54.9200  117.1070 N.3   239  HIS239     -0.1241
    216  CA        20.2370   54.3820  115.9540 C.3   239  HIS239      0.1621
    217  C         19.6180   53.0740  115.4970 C.2   239  HIS239      0.2264
    218  O         19.2270   52.2460  116.3030 O.2   239  HIS239     -0.2867
    219  CB        21.7250   54.1880  116.2570 C.3   239  HIS239      0.0745
    220  CG        22.4710   53.4780  115.1720 C.ar  239  HIS239      0.0817
    221  ND1       22.5550   52.1040  115.1040 N.ar  239  HIS239     -0.2268
    222  CD2       23.1240   53.9480  114.0820 C.ar  239  HIS239      0.1154
    223  CE1       23.2170   51.7590  114.0160 C.ar  239  HIS239      0.1986
    224  NE2       23.5750   52.8580  113.3810 N.ar  239  HIS239     -0.2212
@<TRIPOS>BOND
     1   145   146    2
     2   145   144    1
     3   155   154    1
     4   151   150    1
     5   151   152    1
     6   151   154    1
     7   144   143    1
     8   144   147    1
     9   152   153    2
    10   116   113    1
    11   116   117    1
    12   154   156    1
    13   118   117    1
    14   118   112    1
    15   113   112    1
    16   113   114    1
    17    68    69    2
    18    68    67    1
    19    67    66    1
    20    67    70    1
    21   148   147    1
    22   147   149    1
    23    77    78    1
    24   134   133    1
    25   134   135    2
    26   136   133    1
    27   136   137    1
    28   133   132    1
    29    80    79    2
    30   114   119   am
    31   114   115    2
    32   122   121    2
    33   119   120    1
    34    70    71    1
    35   168   167    1
    36    79    78    1
    37    78    81    1
    38   137   138   ar
    39   137   139   ar
    40   157   158    1
    41   138   140   ar
    42   109   107   ar
    43   109   110   ar
    44    61    62    2
    45    61    60    1
    46   121   120    1
    47   121   125   am
    48   107   105   ar
    49   167   165   ar
    50   167   166   ar
    51   124   123    1
    52   120   123    1
    53    71    72   ar
    54    71    73   ar
    55   165   163   ar
    56   166   164   ar
    57    72    74   ar
    58    81    82    1
    59   130   129    1
    60   163   162   ar
    61   164   162   ar
    62   139   141   ar
    63    60    59    1
    64    60    63    1
    65   111   110    1
    66   140   142   ar
    67   110   108   ar
    68   125   126    1
    69   126   129    1
    70   126   127    1
    71    73    75   ar
    72   158   161    1
    73   158   159    1
    74   162   161    1
    75   103   102    2
    76   105   104    1
    77   105   106   ar
    78   104   101    1
    79   131   129    1
    80    74    76   ar
    81   160   159    2
    82    83    84    1
    83   175   174    2
    84   159   169   am
    85   141   142   ar
    86   127   128    2
    87    63    64    1
    88    63    65    1
    89   102   101    1
    90   108   106   ar
    91    75    76   ar
    92   101   100    1
    93   206   205    1
    94    86    85    2
    95    90    92   ar
    96    90    88   ar
    97   205   204    1
    98    92    93   ar
    99   169   170    1
   100    98    97    2
   101   174   176   am
   102   174   173    1
   103    84    87    1
   104    84    85    1
   105    87    88    1
   106   224   223   ar
   107   224   222   ar
   108    88    89   ar
   109   200   203    1
   110   200   201    1
   111   200   199    1
   112   170   173    1
   113   170   171    1
   114   203   204    1
   115   223   221   ar
   116   201   202    2
   117   222   220   ar
   118    93    94    1
   119    93    91   ar
   120    97    96    1
   121    89    91   ar
   122   213   214    1
   123   213   212    1
   124     8     6    1
   125   171   172    2
   126   171   177   am
   127   221   220   ar
   128   220   219    1
   129    95    96    1
   130    96    99    1
   131   217   216    1
   132   217   218    2
   133   177   178    1
   134    49    47    1
   135   216   219    1
   136   216   215    1
   137   191   192    1
   138   182   181    1
   139     7     5    1
   140   193   192    1
   141   193   194    2
   142   192   195    1
   143   212   211    1
   144    24    22    1
   145     6     5    1
   146     5     2    1
   147   190   188    1
   148   198   196   am
   149   208   211    1
   150   208   207    1
   151   208   209    1
   152   178   181    1
   153   178   179    1
   154    23    22    1
   155    45    44    2
   156    47    48    1
   157    47    46    1
   158   195   196    1
   159    22    21    1
   160   196   197    2
   161     4     3    2
   162   209   210    2
   163   179   180    2
   164   188   187    1
   165    46    43    1
   166   186   185    2
   167    43    44    1
   168    43    42    1
   169     2     3    1
   170     2     1    1
   171    44    50   am
   172     3     9   am
   173    21    18    1
   174     9    10    1
   175   185   184    1
   176   184   187    1
   177   184   183    1
   178    10    11    1
   179    10    13    1
   180   187   189    1
   181    17    11   am
   182    17    18    1
   183    50    51    1
   184    11    12    2
   185    18    19    1
   186    52    51    1
   187    52    53    2
   188    51    54    1
   189    13    14    1
   190    19    20    2
   191    19    25   am
   192    54    55    1
   193    55    56    1
   194    14    15    2
   195    14    16   am
   196    30    29    1
   197    34    33    2
   198    25    26    1
   199    32    33    1
   200    32    31    1
   201    32    35    1
   202    56    58   ar
   203    56    57   ar
   204    29    26    1
   205    26    27    1
   206    36    35    1
   207    36    37    1
   208    27    28    2
   209    37    38    1
   210    38    39    2
   211    41    39    1
   212    39    40    1
