@<TRIPOS>MOLECULE
tmp/1k6mA00.pdb
 225 215 0 0 0
SMALL
GASTEIGER

@<TRIPOS>ATOM
      1  N        -17.5040   37.0430   31.8110 N.3    12  PRO12      -0.2102
      2  CA       -18.5580   38.0530   31.6970 C.3    12  PRO12       0.1504
      3  C        -19.1850   38.3200   33.0730 C.2    12  PRO12       0.2576
      4  O        -19.3590   37.4050   33.8820 O.2    12  PRO12      -0.2718
      5  CB       -19.5470   37.4260   30.7150 C.3    12  PRO12       0.0282
      6  CG       -18.7050   36.4630   29.9500 C.3    12  PRO12       0.0208
      7  CD       -17.8300   35.8670   31.0000 C.3    12  PRO12       0.0893
      8  N        -19.5160   39.5850   33.3130 N.am   13  ALA13      -0.1966
      9  CA       -20.1050   40.0520   34.5690 C.3    13  ALA13       0.1728
     10  C        -19.0740   40.0730   35.6950 C.2    13  ALA13       0.2616
     11  O        -19.3710   39.7030   36.8230 O.2    13  ALA13      -0.2715
     12  CB       -21.3130   39.2040   34.9610 C.3    13  ALA13       0.0334
     13  N        -17.8610   40.5100   35.3650 N.am   14  ARG14      -0.1963
     14  CA       -16.7810   40.6330   36.3480 C.3    14  ARG14       0.1729
     15  C        -16.4350   42.1230   36.5310 C.2    14  ARG14       0.2617
     16  O        -15.5220   42.4900   37.2870 O.2    14  ARG14      -0.2715
     17  CB       -15.5290   39.8750   35.8900 C.3    14  ARG14       0.0348
     18  CG       -15.3440   38.5630   36.5800 C.3    14  ARG14       0.0492
     19  CD       -16.3870   37.5940   36.0500 C.3    14  ARG14       0.2205
     20  NE       -16.5770   36.4450   36.9380 N.pl3  14  ARG14      -0.0865
     21  CZ       -17.6000   35.6000   36.8440 C.cat  14  ARG14       0.5346
     22  NH1      -18.5150   35.7840   35.9030 N.pl3  14  ARG14       0.1354
     23  NH2      -17.6900   34.5700   37.6730 N.pl3  14  ARG14       0.1354
     24  N        -17.1590   42.9760   35.8120 N.am   15  GLY15      -0.1940
     25  CA       -16.9350   44.4000   35.9350 C.3    15  GLY15       0.2014
     26  C        -15.8150   44.9240   35.0700 C.2    15  GLY15       0.2639
     27  O        -15.1740   45.9230   35.3860 O.2    15  GLY15      -0.2714
     28  N        -15.5860   44.2740   33.9490 N.am   16  LYS16      -0.1963
     29  CA       -14.5240   44.7220   33.0920 C.3    16  LYS16       0.1728
     30  C        -14.8650   46.0630   32.4580 C.2    16  LYS16       0.2617
     31  O        -14.0480   46.9790   32.4450 O.2    16  LYS16      -0.2715
     32  CB       -14.2560   43.6840   32.0020 C.3    16  LYS16       0.0311
     33  CG       -13.7130   42.3410   32.5000 C.3    16  LYS16       0.0038
     34  CD       -13.1850   41.4800   31.3360 C.3    16  LYS16       0.0206
     35  CE       -14.2700   41.2490   30.2810 C.3    16  LYS16       0.1093
     36  NZ       -15.4500   40.4670   30.8010 N.3    16  LYS16      -0.1314
     37  N        -16.0660   46.1790   31.9120 N.am   17  THR17      -0.1937
     38  CA       -16.4520   47.4190   31.2700 C.3    17  THR17       0.2028
     39  C        -16.5570   48.5470   32.2890 C.2    17  THR17       0.2642
     40  O        -16.2620   49.7000   31.9870 O.2    17  THR17      -0.2714
     41  CB       -17.7610   47.2370   30.4990 C.3    17  THR17       0.1808
     42  OG1      -17.5360   46.3000   29.4370 O.3    17  THR17      -0.2208
     43  CG2      -18.2240   48.5460   29.8990 C.3    17  THR17       0.0379
     44  N        -16.9460   48.2200   33.5130 N.am   18  TYR18      -0.1959
     45  CA       -17.0380   49.2200   34.5770 C.3    18  TYR18       0.1771
     46  C        -15.6420   49.7590   34.8830 C.2    18  TYR18       0.2619
     47  O        -15.4420   50.9650   34.9850 O.2    18  TYR18      -0.2715
     48  CB       -17.6220   48.5630   35.8090 C.3    18  TYR18       0.0574
     49  CG       -17.5640   49.4370   37.0220 C.ar   18  TYR18      -0.0198
     50  CD1      -18.5880   50.3550   37.2870 C.ar   18  TYR18      -0.0009
     51  CD2      -16.5090   49.3270   37.9370 C.ar   18  TYR18      -0.0009
     52  CE1      -18.5700   51.1480   38.4470 C.ar   18  TYR18       0.0417
     53  CE2      -16.4740   50.1060   39.1020 C.ar   18  TYR18       0.0417
     54  CZ       -17.5130   51.0150   39.3570 C.ar   18  TYR18       0.1957
     55  OH       -17.5020   51.7750   40.5170 O.3    18  TYR18      -0.2866
     56  N        -14.6810   48.8480   35.0140 N.am   19  ILE19      -0.1977
     57  CA       -13.2970   49.2270   35.2570 C.3    19  ILE19       0.1596
     58  C        -12.7080   49.9520   34.0300 C.2    19  ILE19       0.2287
     59  O        -11.9520   50.8990   34.1520 O.2    19  ILE19      -0.2864
     60  CB       -12.4720   47.9900   35.5690 C.3    19  ILE19       0.0276
     61  CG1      -12.9930   47.3510   36.8470 C.3    19  ILE19       0.0022
     62  CG2      -11.0290   48.3280   35.7090 C.3    19  ILE19       0.0022
     63  CD1      -12.3790   46.0100   37.1160 C.3    19  ILE19       0.0001
     64  N        -14.5090   48.5150   23.2050 N.3    38  ASN38      -0.1240
     65  CA       -15.3710   47.4940   23.7450 C.3    38  ASN38       0.1653
     66  C        -15.7500   46.5630   22.6300 C.2    38  ASN38       0.2266
     67  O        -16.3560   46.9950   21.6520 O.2    38  ASN38      -0.2867
     68  CB       -16.6140   48.1630   24.3240 C.3    38  ASN38       0.1155
     69  CG       -17.5280   47.1940   25.0300 C.2    38  ASN38       0.2627
     70  OD1      -18.2950   46.4680   24.3970 O.2    38  ASN38      -0.2716
     71  ND2      -17.4620   47.1790   26.3510 N.am   38  ASN38      -0.0877
     72  N        -17.8830   43.9490   22.7950 N.3    40  GLY40      -0.1225
     73  CA       -19.3210   43.7280   22.7980 C.3    40  GLY40       0.1811
     74  C        -19.9650   44.7260   21.8440 C.2    40  GLY40       0.2280
     75  O        -20.9240   44.4100   21.1310 O.2    40  GLY40      -0.2866
     76  N        -22.2740   43.8490   18.2920 N.3    44  ARG44      -0.1245
     77  CA       -23.6280   44.2460   17.9610 C.3    44  ARG44       0.1563
     78  C        -23.7360   44.9740   16.6370 C.2    44  ARG44       0.2260
     79  O        -24.8070   45.0520   16.0280 O.2    44  ARG44      -0.2867
     80  CB       -24.2090   45.0470   19.1100 C.3    44  ARG44       0.0307
     81  CG       -24.6360   44.1270   20.2420 C.3    44  ARG44       0.0489
     82  CD       -25.0700   44.9040   21.4510 C.3    44  ARG44       0.2205
     83  NE       -24.0400   45.8330   21.8940 N.pl3  44  ARG44      -0.0865
     84  CZ       -23.3790   45.7240   23.0410 C.cat  44  ARG44       0.5346
     85  NH1      -23.6290   44.7260   23.8910 N.pl3  44  ARG44       0.1354
     86  NH2      -22.4610   46.6290   23.3340 N.pl3  44  ARG44       0.1354
     87  N        -11.2080   46.2630   25.8870 N.3    92  ASP92      -0.1225
     88  CA       -12.2600   45.6710   26.7260 C.3    92  ASP92       0.1805
     89  C        -12.9670   44.4590   26.0990 C.2    92  ASP92       0.2598
     90  O        -13.8320   44.6070   25.2320 O.2    92  ASP92      -0.2718
     91  CB       -13.3070   46.7340   27.0850 C.3    92  ASP92       0.1424
     92  CG       -14.4070   46.2140   28.0180 C.2    92  ASP92       0.3668
     93  OD1      -14.2640   45.1300   28.6220 O.co2  92  ASP92      -0.2456
     94  OD2      -15.4360   46.9140   28.1440 O.co2  92  ASP92      -0.2456
     95  N        -12.6070   43.2710   26.5720 N.am   93  ALA93      -0.1966
     96  CA       -13.1810   42.0240   26.0910 C.3    93  ALA93       0.1728
     97  C        -12.7810   40.9530   27.1060 C.2    93  ALA93       0.2616
     98  O        -11.9610   41.2230   27.9830 O.2    93  ALA93      -0.2715
     99  CB       -12.6100   41.7100   24.7290 C.3    93  ALA93       0.0334
    100  N        -13.3310   39.7460   27.0080 N.am   94  THR94      -0.1951
    101  CA       -12.9620   38.7020   27.9740 C.3    94  THR94       0.1897
    102  C        -11.4780   38.3340   27.9200 C.2    94  THR94       0.2313
    103  O        -10.8370   38.2060   28.9710 O.2    94  THR94      -0.2863
    104  CB       -13.8040   37.4090   27.7940 C.3    94  THR94       0.1794
    105  OG1      -13.4570   36.7670   26.5560 O.3    94  THR94      -0.2208
    106  CG2      -15.2890   37.7370   27.8170 C.3    94  THR94       0.0378
    107  N        -10.0060   40.6270   36.2350 N.3   120  SER120     -0.1202
    108  CA       -11.0020   40.6870   37.2910 C.3   120  SER120      0.2020
    109  C        -11.4850   39.2680   37.5630 C.2   120  SER120      0.2619
    110  O        -12.1580   38.6450   36.7410 O.2   120  SER120     -0.2717
    111  CB       -12.1620   41.5690   36.8600 C.3   120  SER120      0.2103
    112  OG       -13.1110   41.6820   37.8990 O.3   120  SER120     -0.2182
    113  N        -11.1310   38.7670   38.7360 N.am  121  ILE121     -0.1965
    114  CA       -11.4930   37.4220   39.1280 C.3   121  ILE121      0.1727
    115  C        -12.4620   37.4720   40.2990 C.2   121  ILE121      0.2616
    116  O        -12.1500   38.0640   41.3400 O.2   121  ILE121     -0.2715
    117  CB       -10.2330   36.6300   39.5530 C.3   121  ILE121      0.0290
    118  CG1       -9.3530   36.3660   38.3440 C.3   121  ILE121      0.0022
    119  CG2      -10.6040   35.3120   40.1600 C.3   121  ILE121      0.0023
    120  CD1       -7.8760   36.4190   38.6830 C.3   121  ILE121      0.0001
    121  N        -13.6390   36.8740   40.1150 N.am  122  CYS122     -0.1968
    122  CA       -14.6450   36.7940   41.1740 C.3   122  CYS122      0.1712
    123  C        -15.4800   35.5110   41.0870 C.2   122  CYS122      0.2296
    124  O        -16.1630   35.2400   40.0850 O.2   122  CYS122     -0.2864
    125  CB       -15.5760   38.0100   41.1690 C.3   122  CYS122      0.0983
    126  SG       -16.7590   37.9550   42.5490 S.3   122  CYS122     -0.0798
    127  N        -22.1360   37.9550   44.1790 N.3   127  ILE127     -0.1231
    128  CA       -21.6110   39.0980   43.4700 C.3   127  ILE127      0.1692
    129  C        -22.0120   39.0570   42.0010 C.2   127  ILE127      0.2591
    130  O        -22.5270   40.0530   41.4710 O.2   127  ILE127     -0.2718
    131  CB       -20.0740   39.1680   43.6210 C.3   127  ILE127      0.0266
    132  CG1      -19.7090   38.9320   45.1000 C.3   127  ILE127      0.0019
    133  CG2      -19.5420   40.4990   43.0720 C.3   127  ILE127      0.0020
    134  CD1      -18.6810   39.8660   45.6860 C.3   127  ILE127      0.0001
    135  N        -21.8400   37.9080   41.3440 N.am  128  ILE128     -0.1980
    136  CA       -22.1770   37.8460   39.9260 C.3   128  ILE128      0.1595
    137  C        -23.6670   38.0070   39.6510 C.2   128  ILE128      0.2287
    138  O        -24.0550   38.6510   38.6740 O.2   128  ILE128     -0.2864
    139  CB       -21.6280   36.5580   39.2740 C.3   128  ILE128      0.0276
    140  CG1      -20.0940   36.6020   39.2750 C.3   128  ILE128      0.0022
    141  CG2      -22.0870   36.4690   37.8030 C.3   128  ILE128      0.0022
    142  CD1      -19.4360   35.8320   40.4120 C.3   128  ILE128      0.0001
    143  N        -24.4830   41.5690   39.6760 N.3   131  ASN131     -0.1240
    144  CA       -23.9430   42.1980   38.4590 C.3   131  ASN131      0.1653
    145  C        -24.8820   42.0350   37.2850 C.2   131  ASN131      0.2266
    146  O        -25.1180   42.9940   36.5530 O.2   131  ASN131     -0.2867
    147  CB       -22.5930   41.6160   38.0790 C.3   131  ASN131      0.1155
    148  CG       -21.5050   42.0400   39.0180 C.2   131  ASN131      0.2627
    149  OD1      -20.3460   41.6760   38.8410 O.2   131  ASN131     -0.2716
    150  ND2      -21.8650   42.8050   40.0340 N.am  131  ASN131     -0.0877
    151  N        -28.0360   44.1010   38.1270 N.3   134  GLN134     -0.1231
    152  CA       -27.5960   45.4760   37.9440 C.3   134  GLN134      0.1698
    153  C        -27.3590   45.9290   36.4950 C.2   134  GLN134      0.2592
    154  O        -27.9660   46.9010   36.0660 O.2   134  GLN134     -0.2718
    155  CB       -26.3200   45.7050   38.7680 C.3   134  GLN134      0.0381
    156  CG       -26.4930   46.5560   40.0190 C.3   134  GLN134      0.0905
    157  CD       -25.1640   47.1030   40.5050 C.2   134  GLN134      0.2608
    158  OE1      -24.1870   47.1330   39.7550 O.2   134  GLN134     -0.2717
    159  NE2      -25.1180   47.5420   41.7560 N.am  134  GLN134     -0.0878
    160  N        -26.4980   45.2460   35.7390 N.am  135  VAL135     -0.1966
    161  CA       -26.2010   45.7080   34.3800 C.3   135  VAL135      0.1727
    162  C        -26.6240   44.8990   33.1790 C.2   135  VAL135      0.2616
    163  O        -26.7200   45.4480   32.0720 O.2   135  VAL135     -0.2715
    164  CB       -24.6930   45.9470   34.1760 C.3   135  VAL135      0.0290
    165  CG1      -24.3370   47.3570   34.5920 C.3   135  VAL135      0.0023
    166  CG2      -23.8870   44.9140   34.9410 C.3   135  VAL135      0.0023
    167  N        -26.8530   43.6060   33.3570 N.am  136  LYS136     -0.1977
    168  CA       -27.1980   42.7940   32.2090 C.3   136  LYS136      0.1596
    169  C        -28.6810   42.7570   31.8390 C.2   136  LYS136      0.2287
    170  O        -29.0170   42.6260   30.6510 O.2   136  LYS136     -0.2864
    171  CB       -26.6320   41.3890   32.4030 C.3   136  LYS136      0.0298
    172  CG       -25.1060   41.3540   32.6160 C.3   136  LYS136      0.0038
    173  CD       -24.3220   42.0130   31.4720 C.3   136  LYS136      0.0206
    174  CE       -22.8190   42.0470   31.7750 C.3   136  LYS136      0.1093
    175  NZ       -21.9740   42.6770   30.7090 N.3   136  LYS136     -0.1314
    176  N        -27.6820   34.2700   30.2850 N.3   154  PHE154     -0.1241
    177  CA       -26.4070   34.8130   30.7130 C.3   154  PHE154      0.1605
    178  C        -25.5750   33.8140   31.4890 C.2   154  PHE154      0.2264
    179  O        -24.3830   33.6620   31.2200 O.2   154  PHE154     -0.2867
    180  CB       -26.5750   36.0980   31.5160 C.3   154  PHE154      0.0534
    181  CG       -25.4790   37.0890   31.2530 C.ar  154  PHE154     -0.0203
    182  CD1      -25.4860   37.8540   30.0900 C.ar  154  PHE154     -0.0042
    183  CD2      -24.3700   37.1690   32.0990 C.ar  154  PHE154     -0.0042
    184  CE1      -24.3950   38.6800   29.7640 C.ar  154  PHE154     -0.0003
    185  CE2      -23.2710   37.9970   31.7810 C.ar  154  PHE154     -0.0003
    186  CZ       -23.2870   38.7500   30.6070 C.ar  154  PHE154     -0.0000
    187  N         -7.2240   41.3480   40.1390 N.3   181  ILE181     -0.1245
    188  CA        -8.1160   41.8860   41.1560 C.3   181  ILE181      0.1561
    189  C         -9.0310   40.7340   41.6170 C.2   181  ILE181      0.2260
    190  O         -9.7780   40.1550   40.8080 O.2   181  ILE181     -0.2867
    191  CB        -8.9970   43.0140   40.5810 C.3   181  ILE181      0.0252
    192  CG1       -8.1310   44.1730   40.1340 C.3   181  ILE181      0.0019
    193  CG2      -10.0000   43.4760   41.6190 C.3   181  ILE181      0.0019
    194  CD1       -8.8640   45.0760   39.2050 C.3   181  ILE181      0.0001
    195  N        -13.8020   41.6080   44.0570 N.3   184  VAL184     -0.1245
    196  CA       -14.0880   43.0170   44.0520 C.3   184  VAL184      0.1561
    197  C        -13.1060   43.8130   44.9080 C.2   184  VAL184      0.2260
    198  O        -13.5060   44.5850   45.7840 O.2   184  VAL184     -0.2867
    199  CB       -15.5260   43.2740   44.5090 C.3   184  VAL184      0.0252
    200  CG1      -16.1760   44.2730   43.5710 C.3   184  VAL184      0.0019
    201  CG2      -16.3250   41.9680   44.4940 C.3   184  VAL184      0.0019
    202  N        -17.0440   49.5530   44.7210 N.3   210  VAL210     -0.1245
    203  CA       -18.3900   49.5780   44.1690 C.3   210  VAL210      0.1561
    204  C        -19.4920   49.6540   45.2280 C.2   210  VAL210      0.2260
    205  O        -20.6410   49.2380   44.9940 O.2   210  VAL210     -0.2867
    206  CB       -18.6480   48.3730   43.2190 C.3   210  VAL210      0.0252
    207  CG1      -17.7840   48.5040   41.9780 C.3   210  VAL210      0.0019
    208  CG2      -18.3610   47.0650   43.9130 C.3   210  VAL210      0.0019
    209  N        -23.5850   52.0920   37.8510 N.3   390  ALA390     -0.1231
    210  CA       -22.7630   51.3190   36.9210 C.3   390  ALA390      0.1694
    211  C        -22.6300   52.1820   35.6590 C.2   390  ALA390      0.2592
    212  O        -23.6400   52.6780   35.1330 O.2   390  ALA390     -0.2718
    213  CB       -23.4420   50.0180   36.6060 C.3   390  ALA390      0.0304
    214  N        -21.3840   52.3360   35.1860 N.am  391  TYR391     -0.1976
    215  CA       -21.0270   53.2070   34.0490 C.3   391  TYR391      0.1639
    216  C        -21.8900   54.4560   34.0800 C.2   391  TYR391      0.2290
    217  O        -22.9530   54.5110   33.4540 O.2   391  TYR391     -0.2864
    218  CB       -21.1860   52.5380   32.6660 C.3   391  TYR391      0.0560
    219  CG       -21.5270   51.0620   32.6350 C.ar  391  TYR391     -0.0198
    220  CD1      -22.7330   50.6170   32.0730 C.ar  391  TYR391     -0.0009
    221  CD2      -20.6440   50.1120   33.1430 C.ar  391  TYR391     -0.0009
    222  CE1      -23.0500   49.2640   32.0180 C.ar  391  TYR391      0.0417
    223  CE2      -20.9500   48.7530   33.0950 C.ar  391  TYR391      0.0417
    224  CZ       -22.1510   48.3410   32.5290 C.ar  391  TYR391      0.1957
    225  OH       -22.4430   46.9990   32.4670 O.3   391  TYR391     -0.2866
@<TRIPOS>BOND
     1    79    78    2
     2    78    77    1
     3    77    76    1
     4    77    80    1
     5    80    81    1
     6    81    82    1
     7    75    74    2
     8    82    83    1
     9    67    66    2
    10    74    73    1
    11    83    84    2
    12    66    65    1
    13    72    73    1
    14    84    86    1
    15    84    85    1
    16    64    65    1
    17    65    68    1
    18    68    69    1
    19    70    69    2
    20    99    96    1
    21    69    71   am
    22    90    89    2
    23    87    88    1
    24    96    95    1
    25    96    97    1
    26    89    95   am
    27    89    88    1
    28   105   104    1
    29    88    91    1
    30   100    97   am
    31   100   101    1
    32    91    92    1
    33    97    98    2
    34   104   106    1
    35   104   101    1
    36   102   101    1
    37   102   103    2
    38    92    94   ar
    39    92    93   ar
    40    42    41    1
    41   184   182   ar
    42   184   186   ar
    43    43    41    1
    44     6     5    1
    45     6     7    1
    46   182   181   ar
    47    35    36    1
    48    35    34    1
    49   176   177    1
    50    41    38    1
    51   186   185   ar
    52   170   169    2
    53   175   174    1
    54   177   178    1
    55   177   180    1
    56     5     2    1
    57     7     1    1
    58   179   178    2
    59   181   180    1
    60   181   183   ar
    61    38    37    1
    62    38    39    1
    63    34    33    1
    64   173   174    1
    65   173   172    1
    66     2     1    1
    67     2     3    1
    68   185   183   ar
    69   169   168    1
    70    37    30   am
    71    40    39    2
    72    32    33    1
    73    32    29    1
    74   222   220   ar
    75   222   224   ar
    76   163   162    2
    77   220   219   ar
    78   168   171    1
    79   168   167    1
    80    39    44   am
    81   171   172    1
    82    31    30    2
    83    30    29    1
    84   225   224    1
    85   224   223   ar
    86   219   218    1
    87   219   221   ar
    88   218   215    1
    89     3     8   am
    90     3     4    2
    91    29    28    1
    92   223   221   ar
    93   162   167   am
    94   162   161    1
    95     8     9    1
    96   217   216    2
    97    44    45    1
    98    28    26   am
    99    58    59    2
   100    58    57    1
   101   215   216    1
   102   215   214    1
   103   164   161    1
   104   164   165    1
   105   164   166    1
   106   161   160    1
   107     9    12    1
   108     9    10    1
   109    45    46    1
   110    45    48    1
   111    46    47    2
   112    46    56   am
   113    56    57    1
   114    26    27    2
   115    26    25    1
   116   212   211    2
   117   214   211   am
   118    57    60    1
   119    13    10   am
   120    13    14    1
   121    60    62    1
   122    60    61    1
   123   211   210    1
   124    10    11    2
   125   160   153   am
   126    48    49    1
   127    24    25    1
   128    24    15   am
   129    17    14    1
   130    17    18    1
   131    22    21    1
   132    19    18    1
   133    19    20    1
   134   154   153    2
   135   107   108    1
   136    14    15    1
   137   153   152    1
   138    15    16    2
   139   146   145    2
   140   213   210    1
   141   110   109    2
   142    21    20    2
   143    21    23    1
   144    61    63    1
   145   111   108    1
   146   111   112    1
   147   210   209    1
   148    49    50   ar
   149    49    51   ar
   150   145   144    1
   151    50    52   ar
   152   108   109    1
   153   109   113   am
   154   141   139    1
   155    51    53   ar
   156   152   151    1
   157   152   155    1
   158   147   144    1
   159   147   148    1
   160   118   120    1
   161   118   117    1
   162    52    54   ar
   163   144   143    1
   164   138   137    2
   165   113   114    1
   166   155   156    1
   167   149   148    2
   168   148   150   am
   169    53    54   ar
   170   114   117    1
   171   114   115    1
   172   194   192    1
   173   139   140    1
   174   139   136    1
   175   140   142    1
   176    54    55    1
   177   117   119    1
   178   137   136    1
   179   158   157    2
   180   136   135    1
   181   156   157    1
   182   124   123    2
   183   121   115   am
   184   121   122    1
   185   192   191    1
   186   187   188    1
   187   115   116    2
   188   157   159   am
   189   191   188    1
   190   191   193    1
   191   190   189    2
   192   123   122    1
   193   188   189    1
   194   125   122    1
   195   125   126    1
   196   135   129   am
   197   130   129    2
   198   207   206    1
   199   129   128    1
   200   133   131    1
   201   206   208    1
   202   206   203    1
   203   128   131    1
   204   128   127    1
   205   200   199    1
   206   131   132    1
   207   196   195    1
   208   196   199    1
   209   196   197    1
   210   203   202    1
   211   203   204    1
   212   201   199    1
   213   197   198    2
   214   205   204    2
   215   132   134    1
