@<TRIPOS>MOLECULE
tmp/1k6nA09.pdb
 98 95 0 0 0
SMALL
GASTEIGER

@<TRIPOS>ATOM
      1  N         -6.4520   93.9440   44.8910 N.3    75  LEU75      -0.1231
      2  CA        -6.4040   92.8630   43.8850 C.3    75  LEU75       0.1693
      3  C         -7.7600   92.6830   43.2140 C.2    75  LEU75       0.2593
      4  O         -8.1540   91.5710   42.8410 O.2    75  LEU75      -0.2718
      5  CB        -6.0130   91.5490   44.5390 C.3    75  LEU75       0.0284
      6  CG        -4.6890   91.6510   45.2790 C.3    75  LEU75       0.0019
      7  CD1       -4.6270   90.7380   46.5000 C.3    75  LEU75       0.0001
      8  CD2       -3.4910   91.2890   44.4020 C.3    75  LEU75       0.0001
      9  N         -8.4590   93.7770   43.0810 N.am   76  GLY76      -0.1942
     10  CA        -9.7520   93.7730   42.4050 C.3    76  GLY76       0.2014
     11  C         -9.5240   94.2460   40.9770 C.2    76  GLY76       0.2639
     12  O         -8.3920   94.5710   40.5920 O.2    76  GLY76      -0.2714
     13  N        -10.5910   94.2640   40.2180 N.am   77  GLY77      -0.1954
     14  CA       -10.5520   94.7680   38.8380 C.3    77  GLY77       0.1869
     15  C        -10.5520   96.2990   38.8940 C.2    77  GLY77       0.2309
     16  O        -10.9850   96.9150   39.8670 O.2    77  GLY77      -0.2863
     17  N         -4.1410   97.3050   31.6360 N.3    86  TRP86      -0.1227
     18  CA        -2.8800   96.6390   31.9630 C.3    86  TRP86       0.1737
     19  C         -3.1200   95.2080   32.3990 C.2    86  TRP86       0.2595
     20  O         -2.2600   94.3580   32.2180 O.2    86  TRP86      -0.2718
     21  CB        -2.1350   97.3840   33.0740 C.3    86  TRP86       0.0564
     22  CG        -0.9000   96.6800   33.5520 C.ar   86  TRP86       0.0003
     23  CD1        0.3980   96.9720   33.2180 C.ar   86  TRP86       0.0946
     24  CD2       -0.8370   95.6600   34.5250 C.ar   86  TRP86       0.0152
     25  NE1        1.2640   96.2170   33.9610 N.ar   86  TRP86      -0.2442
     26  CE2        0.5300   95.4080   34.7860 C.ar   86  TRP86       0.0810
     27  CE3       -1.8020   94.9230   35.2080 C.ar   86  TRP86       0.0012
     28  CZ2        0.9570   94.4700   35.7120 C.ar   86  TRP86       0.0191
     29  CZ3       -1.3780   93.9650   36.1190 C.ar   86  TRP86       0.0001
     30  CH2       -0.0020   93.7520   36.3700 C.ar   86  TRP86       0.0015
     31  N         -4.1670   95.0330   33.1900 N.am   87  GLN87      -0.1979
     32  CA        -4.5520   93.7340   33.6870 C.3    87  GLN87       0.1601
     33  C         -4.8690   92.7710   32.5480 C.2    87  GLN87       0.2287
     34  O         -4.3870   91.6360   32.5670 O.2    87  GLN87      -0.2864
     35  CB        -5.7460   93.8670   34.6390 C.3    87  GLN87       0.0394
     36  CG        -5.3780   94.5610   35.9370 C.3    87  GLN87       0.0908
     37  CD        -6.5560   94.8360   36.8400 C.2    87  GLN87       0.2608
     38  OE1       -7.5350   95.4480   36.4220 O.2    87  GLN87      -0.2717
     39  NE2       -6.4130   94.4960   38.1150 N.am   87  GLN87      -0.0878
     40  N         -1.5610   92.1590   30.5690 N.3    90  THR90      -0.1203
     41  CA        -0.8960   91.1130   31.3220 C.3    90  THR90       0.1994
     42  C         -1.4620   89.6880   31.1120 C.2    90  THR90       0.2617
     43  O         -0.7040   88.7480   30.8880 O.2    90  THR90      -0.2717
     44  CB        -0.8920   91.4460   32.7950 C.3    90  THR90       0.1784
     45  OG1       -0.1990   92.7000   32.9910 O.3    90  THR90      -0.2211
     46  CG2       -0.2310   90.3160   33.5780 C.3    90  THR90       0.0376
     47  N         -2.7860   89.5370   31.1080 N.am   91  ILE91      -0.1979
     48  CA        -3.4020   88.2450   30.8150 C.3    91  ILE91       0.1595
     49  C         -2.9760   87.7810   29.4190 C.2    91  ILE91       0.2287
     50  O         -2.6950   86.6040   29.2010 O.2    91  ILE91      -0.2864
     51  CB        -4.9650   88.3350   30.8900 C.3    91  ILE91       0.0276
     52  CG1       -5.4280   88.0540   32.3240 C.3    91  ILE91       0.0022
     53  CG2       -5.6250   87.3360   29.9280 C.3    91  ILE91       0.0022
     54  CD1       -6.9370   88.0300   32.5120 C.3    91  ILE91       0.0001
     55  N          0.9030   86.6600   29.2280 N.3    94  THR94      -0.1218
     56  CA         0.9000   85.3070   29.7480 C.3    94  THR94       0.1862
     57  C          0.4040   84.2930   28.7150 C.2    94  THR94       0.2287
     58  O          1.1020   83.3300   28.3750 O.2    94  THR94      -0.2866
     59  CB         0.0510   85.2410   31.0310 C.3    94  THR94       0.1770
     60  OG1        0.7150   86.0040   32.0370 O.3    94  THR94      -0.2211
     61  CG2       -0.1180   83.7840   31.5280 C.3    94  THR94       0.0375
     62  N          6.1920   86.2000   35.6040 N.3   129  LEU129     -0.1245
     63  CA         5.0170   85.9450   36.4750 C.3   129  LEU129      0.1561
     64  C          5.3040   86.3110   37.9110 C.2   129  LEU129      0.2260
     65  O          4.4110   86.6680   38.6820 O.2   129  LEU129     -0.2867
     66  CB         4.5670   84.4980   36.3870 C.3   129  LEU129      0.0270
     67  CG         3.7640   84.2270   35.1140 C.3   129  LEU129      0.0019
     68  CD1        3.2410   82.7950   35.0250 C.3   129  LEU129      0.0001
     69  CD2        2.5330   85.1290   34.9820 C.3   129  LEU129      0.0001
     70  N          4.7240   90.2970   38.0370 N.3   132  VAL132     -0.1231
     71  CA         3.3550   90.8520   37.7800 C.3   132  VAL132      0.1692
     72  C          2.2130   90.0210   38.3840 C.2   132  VAL132      0.2591
     73  O          1.0340   90.4010   38.3230 O.2   132  VAL132     -0.2718
     74  CB         3.0440   90.9520   36.2810 C.3   132  VAL132      0.0266
     75  CG1        4.1210   91.7050   35.5080 C.3   132  VAL132      0.0020
     76  CG2        2.8950   89.5900   35.6040 C.3   132  VAL132      0.0020
     77  N          2.5250   88.8960   38.9820 N.am  133  LEU133     -0.1980
     78  CA         1.4500   88.0620   39.5240 C.3   133  LEU133      0.1596
     79  C          1.7000   87.6150   40.9550 C.2   133  LEU133      0.2287
     80  O          0.9610   87.9790   41.8770 O.2   133  LEU133     -0.2864
     81  CB         1.2560   86.8210   38.6620 C.3   133  LEU133      0.0297
     82  CG         0.1770   85.8790   39.1970 C.3   133  LEU133      0.0022
     83  CD1       -1.2100   86.5230   39.2430 C.3   133  LEU133      0.0001
     84  CD2        0.0180   84.6130   38.3510 C.3   133  LEU133      0.0001
     85  N         -2.3890   94.5640   42.5870 N.3   142  TRP142     -0.1241
     86  CA        -1.7960   94.6810   41.2650 C.3   142  TRP142      0.1605
     87  C         -0.8270   95.8730   41.1830 C.2   142  TRP142      0.2264
     88  O          0.1570   95.8070   40.4610 O.2   142  TRP142     -0.2867
     89  CB        -2.8910   94.8100   40.1970 C.3   142  TRP142      0.0550
     90  CG        -3.8400   93.6730   40.2270 C.ar  142  TRP142      0.0003
     91  CD1       -5.1700   93.7240   40.5240 C.ar  142  TRP142      0.0946
     92  CD2       -3.5060   92.2920   40.1190 C.ar  142  TRP142      0.0152
     93  NE1       -5.6810   92.4560   40.6170 N.ar  142  TRP142     -0.2442
     94  CE2       -4.6810   91.5570   40.3700 C.ar  142  TRP142      0.0810
     95  CE3       -2.3210   91.6000   39.8430 C.ar  142  TRP142      0.0012
     96  CZ2       -4.7070   90.1710   40.3490 C.ar  142  TRP142      0.0191
     97  CZ3       -2.3470   90.2320   39.8320 C.ar  142  TRP142      0.0001
     98  CH2       -3.5340   89.5260   40.0810 C.ar  142  TRP142      0.0015
@<TRIPOS>BOND
     1    58    57    2
     2    57    56    1
     3    50    49    2
     4    55    56    1
     5    49    48    1
     6    56    59    1
     7    53    51    1
     8    40    41    1
     9    48    51    1
    10    48    47    1
    11    43    42    2
    12    51    52    1
    13    59    61    1
    14    59    60    1
    15    47    42   am
    16    42    41    1
    17    41    44    1
    18    17    18    1
    19    18    19    1
    20    18    21    1
    21    20    19    2
    22    52    54    1
    23    19    31   am
    24    33    34    2
    25    33    32    1
    26    44    45    1
    27    44    46    1
    28    21    22    1
    29    31    32    1
    30    23    22   ar
    31    23    25   ar
    32    22    24   ar
    33    32    35    1
    34    25    26   ar
    35    24    26   ar
    36    24    27   ar
    37    35    36    1
    38    26    28   ar
    39    69    67    1
    40    68    67    1
    41    67    66    1
    42    27    29   ar
    43    75    74    1
    44    62    63    1
    45    76    74    1
    46    28    30   ar
    47    36    37    1
    48    29    30   ar
    49    74    71    1
    50    66    63    1
    51    38    37    2
    52    63    64    1
    53    37    39   am
    54    71    70    1
    55    71    72    1
    56    64    65    2
    57    73    72    2
    58    84    82    1
    59    72    77   am
    60    81    82    1
    61    81    78    1
    62    14    15    1
    63    14    13    1
    64    15    16    2
    65    77    78    1
    66    82    83    1
    67    78    79    1
    68    97    95   ar
    69    97    98   ar
    70    95    92   ar
    71    98    96   ar
    72    92    90   ar
    73    92    94   ar
    74    89    90    1
    75    89    86    1
    76    13    11   am
    77    90    91   ar
    78    96    94   ar
    79    94    93   ar
    80    88    87    2
    81    91    93   ar
    82    12    11    2
    83    79    80    2
    84    11    10    1
    85    87    86    1
    86    86    85    1
    87    10     9    1
    88     4     3    2
    89     9     3   am
    90     3     2    1
    91     2     5    1
    92     2     1    1
    93     8     6    1
    94     5     6    1
    95     6     7    1
