@<TRIPOS>MOLECULE
tmp/1k6rB00.pdb
 131 124 0 0 0
SMALL
GASTEIGER

@<TRIPOS>ATOM
      1  N         15.0410  -17.5690   90.8160 N.3    48  ALA48      -0.1231
      2  CA        14.6290  -18.3230   89.6400 C.3    48  ALA48       0.1694
      3  C         14.9140  -17.5250   88.3660 C.2    48  ALA48       0.2592
      4  O         15.9450  -16.8620   88.2620 O.2    48  ALA48      -0.2718
      5  CB        13.1400  -18.6660   89.7340 C.3    48  ALA48       0.0304
      6  N         13.9950  -17.5970   87.4080 N.am   49  SER49      -0.1952
      7  CA        14.1160  -16.9030   86.1240 C.3    49  SER49       0.1924
      8  C         14.4590  -15.4100   86.2210 C.2    49  SER49       0.2314
      9  O         15.0950  -14.8590   85.3260 O.2    49  SER49      -0.2863
     10  CB        12.8120  -17.0480   85.3390 C.3    49  SER49       0.2116
     11  OG        12.5060  -18.4170   85.0380 O.3    49  SER49      -0.2180
     12  N         17.9010  -13.9340   85.4180 N.3    52  LYS52      -0.1245
     13  CA        18.4440  -13.6660   84.0940 C.3    52  LYS52       0.1561
     14  C         18.8320  -12.2020   83.9060 C.2    52  LYS52       0.2260
     15  O         19.7170  -11.8850   83.1140 O.2    52  LYS52      -0.2867
     16  CB        17.4550  -14.0790   83.0100 C.3    52  LYS52       0.0271
     17  CG        17.4700  -15.5630   82.7360 C.3    52  LYS52       0.0035
     18  CD        16.9550  -15.8800   81.3420 C.3    52  LYS52       0.0206
     19  CE        15.4630  -15.6660   81.2150 C.3    52  LYS52       0.1093
     20  NZ        14.9770  -16.0690   79.8590 N.3    52  LYS52      -0.1314
     21  N         16.9860  -14.6290   74.1070 N.3    75  ALA75      -0.1245
     22  CA        17.5460  -15.4480   75.1750 C.3    75  ALA75       0.1562
     23  C         16.8080  -15.2490   76.4960 C.2    75  ALA75       0.2260
     24  O         16.6810  -16.1820   77.2910 O.2    75  ALA75      -0.2867
     25  CB        19.0200  -15.1240   75.3500 C.3    75  ALA75       0.0290
     26  N         12.4070  -18.7880   76.0800 N.3    79  SER79      -0.1202
     27  CA        13.0410  -19.7530   76.9750 C.3    79  SER79       0.2020
     28  C         14.4990  -20.0870   76.6470 C.2    79  SER79       0.2619
     29  O         15.3240  -19.1860   76.4680 O.2    79  SER79      -0.2717
     30  CB        12.2040  -21.0390   77.0270 C.3    79  SER79       0.2103
     31  OG        11.9930  -21.5730   75.7310 O.3    79  SER79      -0.2182
     32  N         14.8050  -21.3820   76.5760 N.am   80  ALA80      -0.1965
     33  CA        16.1540  -21.8640   76.2880 C.3    80  ALA80       0.1728
     34  C         17.0250  -21.7520   77.5400 C.2    80  ALA80       0.2616
     35  O         18.0110  -21.0150   77.5700 O.2    80  ALA80      -0.2715
     36  CB        16.7710  -21.0680   75.1320 C.3    80  ALA80       0.0334
     37  N         16.6430  -22.5010   78.5700 N.am   81  VAL81      -0.1977
     38  CA        17.3500  -22.5160   79.8470 C.3    81  VAL81       0.1596
     39  C         18.8550  -22.7750   79.7250 C.2    81  VAL81       0.2287
     40  O         19.6660  -22.0540   80.3090 O.2    81  VAL81      -0.2864
     41  CB        16.7540  -23.5870   80.7850 C.3    81  VAL81       0.0276
     42  CG1       17.3550  -23.4550   82.1770 C.3    81  VAL81       0.0022
     43  CG2       15.2380  -23.4560   80.8260 C.3    81  VAL81       0.0022
     44  N         21.6130  -19.7620   79.3010 N.3    84  PHE84      -0.1241
     45  CA        22.1630  -18.9880   80.4060 C.3    84  PHE84       0.1605
     46  C         23.0000  -19.8180   81.3680 C.2    84  PHE84       0.2264
     47  O         23.7640  -19.2760   82.1650 O.2    84  PHE84      -0.2867
     48  CB        21.0350  -18.2680   81.1470 C.3    84  PHE84       0.0534
     49  CG        20.6260  -16.9850   80.4960 C.ar   84  PHE84      -0.0203
     50  CD1       21.3030  -15.8050   80.7770 C.ar   84  PHE84      -0.0042
     51  CD2       19.6020  -16.9630   79.5570 C.ar   84  PHE84      -0.0042
     52  CE1       20.9700  -14.6160   80.1290 C.ar   84  PHE84      -0.0003
     53  CE2       19.2590  -15.7820   78.9010 C.ar   84  PHE84      -0.0003
     54  CZ        19.9460  -14.6050   79.1880 C.ar   84  PHE84      -0.0000
     55  N         20.7610  -20.3920   90.9640 N.3   118  TRP118     -0.1227
     56  CA        19.6260  -19.4820   90.9880 C.3   118  TRP118      0.1737
     57  C         18.3210  -20.2250   90.7210 C.2   118  TRP118      0.2595
     58  O         17.2350  -19.6560   90.8310 O.2   118  TRP118     -0.2718
     59  CB        19.8280  -18.3730   89.9500 C.3   118  TRP118      0.0564
     60  CG        19.7340  -18.8230   88.5170 C.ar  118  TRP118      0.0003
     61  CD1       18.6120  -18.8730   87.7500 C.ar  118  TRP118      0.0946
     62  CD2       20.8140  -19.2610   87.6780 C.ar  118  TRP118      0.0152
     63  NE1       18.9200  -19.3070   86.4820 N.ar  118  TRP118     -0.2442
     64  CE2       20.2650  -19.5530   86.4100 C.ar  118  TRP118      0.0810
     65  CE3       22.1920  -19.4340   87.8760 C.ar  118  TRP118      0.0012
     66  CZ2       21.0450  -20.0100   85.3360 C.ar  118  TRP118      0.0191
     67  CZ3       22.9700  -19.8900   86.8080 C.ar  118  TRP118      0.0001
     68  CH2       22.3910  -20.1720   85.5540 C.ar  118  TRP118      0.0015
     69  N         18.4430  -21.5040   90.3800 N.am  119  LEU119     -0.1980
     70  CA        17.2860  -22.3440   90.0820 C.3   119  LEU119      0.1596
     71  C         16.9040  -23.2420   91.2550 C.2   119  LEU119      0.2287
     72  O         15.7250  -23.5310   91.4670 O.2   119  LEU119     -0.2864
     73  CB        17.5700  -23.2110   88.8530 C.3   119  LEU119      0.0297
     74  CG        17.9070  -22.4770   87.5520 C.3   119  LEU119      0.0022
     75  CD1       18.2220  -23.4830   86.4510 C.3   119  LEU119      0.0001
     76  CD2       16.7400  -21.5990   87.1490 C.3   119  LEU119      0.0001
     77  N         10.2740   -9.4150   84.0300 N.3   169  LYS169     -0.1231
     78  CA        10.7310  -10.7910   83.9200 C.3   169  LYS169      0.1693
     79  C         10.0310  -11.6200   84.9900 C.2   169  LYS169      0.2592
     80  O          9.9800  -11.2160   86.1500 O.2   169  LYS169     -0.2718
     81  CB        12.2430  -10.8740   84.1290 C.3   169  LYS169      0.0285
     82  CG        12.7920  -12.2590   83.8510 C.3   169  LYS169      0.0035
     83  CD        12.5930  -12.6270   82.3860 C.3   169  LYS169      0.0206
     84  CE        12.7300  -14.1260   82.1780 C.3   169  LYS169      0.1093
     85  NZ        11.6670  -14.8660   82.9110 N.3   169  LYS169     -0.1314
     86  N          9.4900  -12.7680   84.5950 N.am  170  THR170     -0.1953
     87  CA         8.7940  -13.6670   85.5240 C.3   170  THR170      0.1897
     88  C          9.7650  -14.6520   86.1630 C.2   170  THR170      0.2313
     89  O         10.9070  -14.7870   85.7180 O.2   170  THR170     -0.2863
     90  CB         7.7080  -14.4980   84.8120 C.3   170  THR170      0.1794
     91  OG1        8.3290  -15.3720   83.8600 O.3   170  THR170     -0.2208
     92  CG2        6.7250  -13.5920   84.0920 C.3   170  THR170      0.0378
     93  N          9.8560  -18.6450   88.5300 N.3   172  PHE172     -0.1241
     94  CA         9.1520  -19.8090   89.0550 C.3   172  PHE172      0.1605
     95  C         10.1440  -20.8890   89.4900 C.2   172  PHE172      0.2264
     96  O         10.8830  -21.4250   88.6710 O.2   172  PHE172     -0.2867
     97  CB         8.2010  -20.3500   87.9850 C.3   172  PHE172      0.0534
     98  CG         7.4360  -21.5670   88.4060 C.ar  172  PHE172     -0.0203
     99  CD1        6.7820  -21.6060   89.6320 C.ar  172  PHE172     -0.0042
    100  CD2        7.3470  -22.6710   87.5620 C.ar  172  PHE172     -0.0042
    101  CE1        6.0470  -22.7270   90.0150 C.ar  172  PHE172     -0.0003
    102  CE2        6.6150  -23.8020   87.9330 C.ar  172  PHE172     -0.0003
    103  CZ         5.9630  -23.8270   89.1640 C.ar  172  PHE172     -0.0000
    104  N          0.9570  -25.2730   89.2290 N.3   208  GLU208     -0.1245
    105  CA         1.2220  -24.4410   88.0610 C.3   208  GLU208      0.1567
    106  C         -0.0220  -23.7900   87.4670 C.2   208  GLU208      0.2260
    107  O          0.0860  -22.8600   86.6680 O.2   208  GLU208     -0.2867
    108  CB         1.9190  -25.2540   86.9680 C.3   208  GLU208      0.0388
    109  CG         3.2310  -25.8880   87.3920 C.3   208  GLU208      0.1160
    110  CD         4.0810  -26.3050   86.2060 C.2   208  GLU208      0.3649
    111  OE1        5.1020  -26.9930   86.4160 O.co2 208  GLU208     -0.2457
    112  OE2        3.7350  -25.9380   85.0640 O.co2 208  GLU208     -0.2457
    113  N         -0.2090  -20.3110   88.2420 N.3   211  LEU211     -0.1245
    114  CA         0.9360  -19.5860   87.7080 C.3   211  LEU211      0.1561
    115  C          0.5970  -18.2230   87.0960 C.2   211  LEU211      0.2260
    116  O          1.2990  -17.2420   87.3390 O.2   211  LEU211     -0.2867
    117  CB         1.6520  -20.4600   86.6770 C.3   211  LEU211      0.0270
    118  CG         3.1280  -20.1760   86.4160 C.3   211  LEU211      0.0019
    119  CD1        3.8770  -20.0220   87.7340 C.3   211  LEU211      0.0001
    120  CD2        3.7080  -21.3170   85.5980 C.3   211  LEU211      0.0001
    121  N          0.7300  -14.6260   88.9870 N.3   214  ARG214     -0.1245
    122  CA         1.9010  -13.8080   89.2660 C.3   214  ARG214      0.1563
    123  C          1.8560  -12.5110   88.4580 C.2   214  ARG214      0.2260
    124  O          2.4160  -11.5030   88.8800 O.2   214  ARG214     -0.2867
    125  CB         3.1890  -14.5800   88.9710 C.3   214  ARG214      0.0307
    126  CG         3.3670  -14.9670   87.5310 C.3   214  ARG214      0.0489
    127  CD         4.6000  -15.8270   87.3600 C.3   214  ARG214      0.2205
    128  NE         4.6850  -16.3570   86.0070 N.pl3 214  ARG214     -0.0865
    129  CZ         5.6890  -17.1000   85.5570 C.cat 214  ARG214      0.5346
    130  NH1        6.7050  -17.4080   86.3570 N.pl3 214  ARG214      0.1354
    131  NH2        5.6800  -17.5280   84.3010 N.pl3 214  ARG214      0.1354
@<TRIPOS>BOND
     1    21    22    1
     2    36    33    1
     3    22    25    1
     4    22    23    1
     5    31    30    1
     6    26    27    1
     7    33    32    1
     8    33    34    1
     9    29    28    2
    10    23    24    2
    11    32    28   am
    12    28    27    1
    13    27    30    1
    14    34    35    2
    15    34    37   am
    16    37    38    1
    17    53    54   ar
    18    53    51   ar
    19    54    52   ar
    20    44    45    1
    21    51    49   ar
    22    39    38    1
    23    39    40    2
    24    38    41    1
    25    20    19    1
    26    52    50   ar
    27    45    48    1
    28    45    46    1
    29    49    50   ar
    30    49    48    1
    31    41    43    1
    32    41    42    1
    33    19    18    1
    34    18    17    1
    35    46    47    2
    36    84    83    1
    37    84    85    1
    38    83    82    1
    39    17    16    1
    40    16    13    1
    41    15    14    2
    42    82    81    1
    43    91    90    1
    44    14    13    1
    45    78    77    1
    46    78    81    1
    47    78    79    1
    48    92    90    1
    49    13    12    1
    50   131   129    1
    51    86    79   am
    52    86    87    1
    53    90    87    1
    54    79    80    2
    55    11    10    1
    56   112   110   ar
    57     9     8    2
    58    66    68   ar
    59    66    64   ar
    60    10     7    1
    61    87    88    1
    62    68    67   ar
    63   129   128    2
    64   129   130    1
    65   120   118    1
    66    89    88    2
    67   128   127    1
    68     7     8    1
    69     7     6    1
    70   110   111   ar
    71   110   109    1
    72    64    63   ar
    73    64    62   ar
    74   118   117    1
    75   118   119    1
    76    75    74    1
    77    63    61   ar
    78   107   106    2
    79   117   114    1
    80    67    65   ar
    81   108   109    1
    82   108   105    1
    83   115   116    2
    84   115   114    1
    85    76    74    1
    86   127   126    1
    87     6     3   am
    88   106   105    1
    89   126   125    1
    90    74    73    1
    91   100   102   ar
    92   100    98   ar
    93    62    65   ar
    94    62    60   ar
    95   114   113    1
    96    61    60   ar
    97   102   103   ar
    98    97    98    1
    99    97    94    1
   100   105   104    1
   101     4     3    2
   102     3     2    1
   103    98    99   ar
   104   123   124    2
   105   123   122    1
   106    60    59    1
   107    93    94    1
   108    96    95    2
   109    73    70    1
   110   125   122    1
   111   121   122    1
   112    94    95    1
   113   103   101   ar
   114    99   101   ar
   115     2     5    1
   116     2     1    1
   117    59    56    1
   118    70    69    1
   119    70    71    1
   120    69    57   am
   121    57    58    2
   122    57    56    1
   123    55    56    1
   124    71    72    2
