@<TRIPOS>MOLECULE
tmp/1k6sA00.pdb
 78 74 0 0 0
SMALL
GASTEIGER

@<TRIPOS>ATOM
      1  N          7.1050   14.2280   60.9530 N.3    47  SER47      -0.1217
      2  CA         7.6070   13.7150   62.2260 C.3    47  SER47       0.1889
      3  C          8.5250   12.4860   62.2040 C.2    47  SER47       0.2288
      4  O          9.0710   12.1280   63.2400 O.2    47  SER47      -0.2866
      5  CB         6.4480   13.4970   63.2070 C.3    47  SER47       0.2089
      6  OG         5.7010   14.6790   63.3900 O.3    47  SER47      -0.2183
      7  N          0.1240   23.2610   70.0810 N.3    77  ALA77      -0.1231
      8  CA        -0.8150   22.8050   69.0610 C.3    77  ALA77       0.1694
      9  C         -1.7080   21.6270   69.4320 C.2    77  ALA77       0.2591
     10  O         -2.8490   21.5590   68.9770 O.2    77  ALA77      -0.2718
     11  CB        -0.0670   22.5140   67.7670 C.3    77  ALA77       0.0304
     12  N         -1.1930   20.6940   70.2270 N.am   78  MET78      -0.1979
     13  CA        -1.9830   19.5490   70.6770 C.3    78  MET78       0.1605
     14  C         -1.9660   19.5120   72.1950 C.2    78  MET78       0.2287
     15  O         -0.9300   19.7590   72.8050 O.2    78  MET78      -0.2864
     16  CB        -1.4110   18.2270   70.1670 C.3    78  MET78       0.0413
     17  CG        -1.5810   17.9780   68.6840 C.3    78  MET78       0.0598
     18  SD        -1.4050   16.2060   68.3140 S.3    78  MET78      -0.1393
     19  CE        -1.5090   16.2070   66.5590 C.3    78  MET78       0.0692
     20  N          0.5760   17.5580   74.0840 N.3    81  TRP81      -0.1241
     21  CA         1.9350   18.0930   74.1680 C.3    81  TRP81       0.1605
     22  C          2.0960   19.0280   75.3650 C.2    81  TRP81       0.2264
     23  O          3.2170   19.3760   75.7540 O.2    81  TRP81      -0.2867
     24  CB         2.2950   18.8810   72.9050 C.3    81  TRP81       0.0550
     25  CG         2.2040   18.1040   71.6200 C.ar   81  TRP81       0.0003
     26  CD1        2.1020   16.7500   71.4750 C.ar   81  TRP81       0.0946
     27  CD2        2.2100   18.6510   70.3020 C.ar   81  TRP81       0.0152
     28  NE1        2.0380   16.4190   70.1400 N.ar   81  TRP81      -0.2442
     29  CE2        2.1020   17.5700   69.3990 C.ar   81  TRP81       0.0810
     30  CE3        2.2970   19.9550   69.7950 C.ar   81  TRP81       0.0012
     31  CZ2        2.0740   17.7510   68.0100 C.ar   81  TRP81       0.0191
     32  CZ3        2.2720   20.1380   68.4150 C.ar   81  TRP81       0.0001
     33  CH2        2.1600   19.0360   67.5370 C.ar   81  TRP81       0.0015
     34  N          4.1630   10.7950   71.2400 N.3    93  VAL93      -0.1231
     35  CA         3.0180   11.6720   71.0280 C.3    93  VAL93       0.1692
     36  C          3.3450   12.6910   69.9410 C.2    93  VAL93       0.2592
     37  O          2.5400   13.5660   69.6300 O.2    93  VAL93      -0.2718
     38  CB         2.5970   12.4070   72.3350 C.3    93  VAL93       0.0266
     39  CG1        2.3890   11.3830   73.4540 C.3    93  VAL93       0.0020
     40  CG2        3.6420   13.4370   72.7410 C.3    93  VAL93       0.0020
     41  N          4.5340   12.5580   69.3650 N.am   94  SER94      -0.1952
     42  CA         4.9810   13.4450   68.2970 C.3    94  SER94       0.1924
     43  C          4.9530   14.9140   68.7210 C.2    94  SER94       0.2314
     44  O          4.4210   15.7610   68.0050 O.2    94  SER94      -0.2863
     45  CB         4.0860   13.2420   67.0700 C.3    94  SER94       0.2116
     46  OG         4.8640   12.9700   65.9270 O.3    94  SER94      -0.2180
     47  N          5.9410   18.0960   68.5740 N.3    96  VAL96      -0.1245
     48  CA         6.6730   19.0060   67.7070 C.3    96  VAL96       0.1561
     49  C          7.4700   20.1070   68.4140 C.2    96  VAL96       0.2260
     50  O          8.6650   20.2560   68.1650 O.2    96  VAL96      -0.2867
     51  CB         5.7090   19.6530   66.6780 C.3    96  VAL96       0.0252
     52  CG1        6.4110   20.7600   65.8930 C.3    96  VAL96       0.0019
     53  CG2        5.2020   18.5880   65.7290 C.3    96  VAL96       0.0019
     54  N          8.9710   20.0010   58.4520 N.3   134  LEU134     -0.1245
     55  CA         7.5160   20.1770   58.4930 C.3   134  LEU134      0.1561
     56  C          6.9680   20.9140   57.2640 C.2   134  LEU134      0.2260
     57  O          5.8850   20.5970   56.7630 O.2   134  LEU134     -0.2867
     58  CB         7.1210   20.9790   59.7400 C.3   134  LEU134      0.0270
     59  CG         7.4850   20.3670   61.0930 C.3   134  LEU134      0.0019
     60  CD1        7.1640   21.3450   62.2120 C.3   134  LEU134      0.0001
     61  CD2        6.7180   19.0710   61.2670 C.3   134  LEU134      0.0001
     62  N          3.0060   12.8070   59.5830 N.3   187  PHE187     -0.1227
     63  CA         1.8940   13.4070   58.8520 C.3   187  PHE187      0.1736
     64  C          2.2640   14.8620   58.5690 C.2   187  PHE187      0.2596
     65  O          2.4280   15.6520   59.4950 O.2   187  PHE187     -0.2718
     66  CB         0.6160   13.3330   59.7110 C.3   187  PHE187      0.0547
     67  CG        -0.5880   14.0070   59.0980 C.ar  187  PHE187     -0.0202
     68  CD1       -0.9510   13.7610   57.7760 C.ar  187  PHE187     -0.0042
     69  CD2       -1.3850   14.8550   59.8610 C.ar  187  PHE187     -0.0042
     70  CE1       -2.0920   14.3500   57.2280 C.ar  187  PHE187     -0.0003
     71  CE2       -2.5300   15.4500   59.3190 C.ar  187  PHE187     -0.0003
     72  CZ        -2.8820   15.1950   58.0040 C.ar  187  PHE187     -0.0000
     73  N          2.3970   15.2180   57.2940 N.am  188  SER188     -0.1952
     74  CA         2.7710   16.5830   56.9400 C.3   188  SER188      0.1924
     75  C          1.5800   17.5280   56.9270 C.2   188  SER188      0.2314
     76  O          1.7490   18.7430   57.0070 O.2   188  SER188     -0.2863
     77  CB         3.4310   16.6230   55.5640 C.3   188  SER188      0.2116
     78  OG         2.4730   16.4030   54.5440 O.3   188  SER188     -0.2180
@<TRIPOS>BOND
     1    78    77    1
     2    77    74    1
     3    57    56    2
     4    75    74    1
     5    75    76    2
     6    74    73    1
     7    70    68   ar
     8    70    72   ar
     9    56    55    1
    10    73    64   am
    11    68    67   ar
    12    72    71   ar
    13    54    55    1
    14    55    58    1
    15    64    63    1
    16    64    65    2
    17    63    62    1
    18    63    66    1
    19    67    66    1
    20    67    69   ar
    21    71    69   ar
    22    58    59    1
    23     1     2    1
    24    59    61    1
    25    59    60    1
    26     3     2    1
    27     3     4    2
    28     2     5    1
    29     5     6    1
    30    53    51    1
    31    52    51    1
    32    46    45    1
    33    19    18    1
    34    51    48    1
    35    45    42    1
    36    33    31   ar
    37    33    32   ar
    38    48    49    1
    39    48    47    1
    40    11     8    1
    41    44    43    2
    42    31    29   ar
    43    50    49    2
    44    42    43    1
    45    42    41    1
    46    18    17    1
    47    32    30   ar
    48    17    16    1
    49    10     9    2
    50     8     9    1
    51     8     7    1
    52    41    36   am
    53    29    28   ar
    54    29    27   ar
    55     9    12   am
    56    37    36    2
    57    30    27   ar
    58    36    35    1
    59    28    26   ar
    60    16    13    1
    61    12    13    1
    62    27    25   ar
    63    13    14    1
    64    35    34    1
    65    35    38    1
    66    26    25   ar
    67    25    24    1
    68    14    15    2
    69    38    40    1
    70    38    39    1
    71    24    21    1
    72    20    21    1
    73    21    22    1
    74    22    23    2
