@<TRIPOS>MOLECULE
tmp/1k6vB00.pdb
 111 104 0 0 0
SMALL
GASTEIGER

@<TRIPOS>ATOM
      1  N          3.9480   -5.1400   28.1180 N.3     8  ARG8       -0.1245
      2  CA         3.3170   -4.4580   26.9950 C.3     8  ARG8        0.1563
      3  C          2.2440   -3.5010   27.5160 C.2     8  ARG8        0.2260
      4  O          1.4280   -3.8700   28.3580 O.2     8  ARG8       -0.2867
      5  CB         2.6720   -5.4640   26.0380 C.3     8  ARG8        0.0307
      6  CG         3.6510   -6.3140   25.2500 C.3     8  ARG8        0.0489
      7  CD         2.9910   -6.8610   23.9900 C.3     8  ARG8        0.2205
      8  NE         3.8680   -7.7550   23.2390 N.pl3   8  ARG8       -0.0865
      9  CZ         3.7140   -8.0390   21.9500 C.cat   8  ARG8        0.5346
     10  NH1        2.7180   -7.4940   21.2640 N.pl3   8  ARG8        0.1354
     11  NH2        4.5500   -8.8740   21.3470 N.pl3   8  ARG8        0.1354
     12  N         -2.9100   -2.1390   22.1930 N.3    23  LEU23      -0.1245
     13  CA        -1.5720   -1.7070   22.5680 C.3    23  LEU23       0.1561
     14  C         -1.3580   -0.2150   22.3200 C.2    23  LEU23       0.2260
     15  O         -1.6520    0.2790   21.2280 O.2    23  LEU23      -0.2867
     16  CB        -0.5590   -2.5080   21.7450 C.3    23  LEU23       0.0270
     17  CG         0.9400   -2.3090   21.9410 C.3    23  LEU23       0.0019
     18  CD1        1.3710   -2.9970   23.2280 C.3    23  LEU23       0.0001
     19  CD2        1.6850   -2.9120   20.7500 C.3    23  LEU23       0.0001
     20  N          0.7020    2.3670   21.1670 N.3    25  ASP25      -0.1239
     21  CA         1.8520    2.3060   20.2750 C.3    25  ASP25       0.1674
     22  C          2.3190    3.6720   19.7610 C.2    25  ASP25       0.2266
     23  O          1.7910    4.1700   18.7750 O.2    25  ASP25      -0.2867
     24  CB         1.4330    1.3970   19.1110 C.3    25  ASP25       0.1410
     25  CG         2.5660    1.0250   18.1940 C.2    25  ASP25       0.3668
     26  OD1        3.6770    1.5770   18.3180 O.co2  25  ASP25      -0.2456
     27  OD2        2.3110    0.1640   17.3280 O.co2  25  ASP25      -0.2456
     28  N          4.9050    4.3470   18.1840 N.3    27  GLY27      -0.1210
     29  CA         5.5780    4.2060   16.8990 C.3    27  GLY27       0.1956
     30  C          4.6000    4.0550   15.7360 C.2    27  GLY27       0.2612
     31  O          4.9980    4.0290   14.5720 O.2    27  GLY27      -0.2717
     32  N          3.3130    3.9500   16.0480 N.am   28  ALA28      -0.1965
     33  CA         2.2940    3.8030   15.0140 C.3    28  ALA28       0.1728
     34  C          1.6550    5.1640   14.7250 C.2    28  ALA28       0.2616
     35  O          1.1820    5.8300   15.6460 O.2    28  ALA28      -0.2715
     36  CB         1.2330    2.8160   15.4760 C.3    28  ALA28       0.0334
     37  N          1.6440    5.5800   13.4590 N.am   29  ASP29      -0.1957
     38  CA         1.0430    6.8690   13.1010 C.3    29  ASP29       0.1840
     39  C         -0.4720    6.8270   13.2220 C.2    29  ASP29       0.2622
     40  O         -1.1020    7.7880   13.6710 O.2    29  ASP29      -0.2715
     41  CB         1.3760    7.2640   11.6640 C.3    29  ASP29       0.1450
     42  CG         2.8570    7.4630   11.4330 C.2    29  ASP29       0.3671
     43  OD1        3.5340    8.0310   12.3130 O.co2  29  ASP29      -0.2456
     44  OD2        3.3340    7.0630   10.3550 O.co2  29  ASP29      -0.2456
     45  N         -1.0480    5.7100   12.7970 N.am   30  ASP30      -0.1971
     46  CA        -2.4900    5.5390   12.8200 C.3    30  ASP30       0.1709
     47  C         -2.8980    4.3980   13.7320 C.2    30  ASP30       0.2293
     48  O         -2.0580    3.6910   14.2860 O.2    30  ASP30      -0.2864
     49  CB        -3.0040    5.2530   11.4080 C.3    30  ASP30       0.1436
     50  CG        -2.4950    6.2570   10.3830 C.2    30  ASP30       0.3671
     51  OD1       -2.7230    7.4670   10.5760 O.co2  30  ASP30      -0.2456
     52  OD2       -1.8650    5.8280    9.3880 O.co2  30  ASP30      -0.2456
     53  N         -4.9900    0.8590   14.0750 N.3    32  VAL32      -0.1245
     54  CA        -5.4510   -0.2720   13.2810 C.3    32  VAL32       0.1561
     55  C         -5.9050   -1.4030   14.1890 C.2    32  VAL32       0.2260
     56  O         -5.1880   -1.8060   15.1040 O.2    32  VAL32      -0.2867
     57  CB        -4.3380   -0.7890   12.3410 C.3    32  VAL32       0.0252
     58  CG1       -4.8400   -1.9780   11.5270 C.3    32  VAL32       0.0019
     59  CG2       -3.8980    0.3230   11.4140 C.3    32  VAL32       0.0019
     60  N         -1.3090    0.5370    4.3840 N.3    47  ILE47      -0.1231
     61  CA        -0.3750    1.0740    5.3620 C.3    47  ILE47       0.1692
     62  C          0.8420    0.1640    5.3890 C.2    47  ILE47       0.2593
     63  O          0.7380   -1.0430    5.1520 O.2    47  ILE47      -0.2718
     64  CB        -0.9910    1.1510    6.7860 C.3    47  ILE47       0.0266
     65  CG1       -1.4320   -0.2370    7.2560 C.3    47  ILE47       0.0019
     66  CG2       -2.1700    2.1070    6.7890 C.3    47  ILE47       0.0020
     67  CD1       -1.9020   -0.2590    8.6960 C.3    47  ILE47       0.0001
     68  N          1.9980    0.7480    5.6700 N.am   48  GLY48      -0.1942
     69  CA         3.2070   -0.0400    5.7050 C.3    48  GLY48       0.2014
     70  C          3.9140    0.0200    7.0360 C.2    48  GLY48       0.2639
     71  O          3.8430    1.0120    7.7560 O.2    48  GLY48      -0.2714
     72  N          4.5900   -1.0700    7.3600 N.am   49  GLY49      -0.1939
     73  CA         5.3400   -1.1520    8.5920 C.3    49  GLY49       0.2014
     74  C          6.5030   -2.0850    8.3360 C.2    49  GLY49       0.2638
     75  O          6.9580   -2.2220    7.1980 O.2    49  GLY49      -0.2714
     76  N          6.9950   -2.7220    9.3890 N.am   50  ILE50      -0.1977
     77  CA         8.0890   -3.6570    9.2340 C.3    50  ILE50       0.1596
     78  C          7.4780   -4.9280    8.6600 C.2    50  ILE50       0.2287
     79  O          6.4180   -5.3690    9.0940 O.2    50  ILE50      -0.2864
     80  CB         8.7870   -3.9120   10.5950 C.3    50  ILE50       0.0276
     81  CG1        9.6440   -2.6870   10.9400 C.3    50  ILE50       0.0022
     82  CG2        9.6220   -5.1920   10.5370 C.3    50  ILE50       0.0022
     83  CD1       10.3330   -2.7360   12.2780 C.3    50  ILE50       0.0001
     84  N         -4.0980   -6.9790   10.8880 N.3    80  THR80      -0.1204
     85  CA        -2.9890   -6.5850   11.7440 C.3    80  THR80       0.1979
     86  C         -2.7700   -7.6970   12.7680 C.2    80  THR80       0.2460
     87  O         -3.7170   -8.3530   13.1890 O.2    80  THR80      -0.2732
     88  CB        -3.2770   -5.2600   12.4900 C.3    80  THR80       0.1783
     89  OG1       -2.2260   -5.0130   13.4330 O.3    80  THR80      -0.2211
     90  CG2       -4.6200   -5.3230   13.2240 C.3    80  THR80       0.0376
     91  N         -1.5120   -7.9390   13.1640 N.am   81  PRO81      -0.2717
     92  CA        -1.2300   -8.9930   14.1450 C.3    81  PRO81       0.1535
     93  C         -1.8380   -8.7190   15.5220 C.2    81  PRO81       0.2599
     94  O         -2.0180   -9.6410   16.3070 O.2    81  PRO81      -0.2715
     95  CB         0.2970   -9.0230   14.1950 C.3    81  PRO81       0.0310
     96  CG         0.7020   -8.5490   12.8200 C.3    81  PRO81       0.0237
     97  CD        -0.2660   -7.4230   12.5650 C.3    81  PRO81       0.0939
     98  N         -2.1430   -7.4560   15.8170 N.am   82  THR82      -0.1951
     99  CA        -2.7230   -7.1010   17.1140 C.3    82  THR82       0.1897
    100  C         -3.3370   -5.7020   17.0460 C.2    82  THR82       0.2313
    101  O         -3.0090   -4.9200   16.1520 O.2    82  THR82      -0.2863
    102  CB        -1.6410   -7.1530   18.2340 C.3    82  THR82       0.1794
    103  OG1       -2.2700   -7.0990   19.5210 O.3    82  THR82      -0.2208
    104  CG2       -0.6710   -5.9810   18.1030 C.3    82  THR82       0.0378
    105  N         -3.7560   -1.9660   17.7020 N.3    84  VAL84      -0.1245
    106  CA        -2.8210   -0.8930   18.0090 C.3    84  VAL84       0.1561
    107  C         -3.4690    0.4930   18.0330 C.2    84  VAL84       0.2260
    108  O         -4.2290    0.8500   17.1320 O.2    84  VAL84      -0.2867
    109  CB        -1.6680   -0.8890   16.9680 C.3    84  VAL84       0.0252
    110  CG1       -0.8590    0.3740   17.0830 C.3    84  VAL84       0.0019
    111  CG2       -0.7830   -2.1110   17.1670 C.3    84  VAL84       0.0019
@<TRIPOS>BOND
     1    60    61    1
     2    63    62    2
     3    61    62    1
     4    61    64    1
     5    62    68   am
     6    68    69    1
     7    69    70    1
     8    64    66    1
     9    64    65    1
    10    70    72   am
    11    70    71    2
    12    75    74    2
    13    65    67    1
    14    72    73    1
    15    74    73    1
    16    74    76   am
    17    78    79    2
    18    78    77    1
    19    77    76    1
    20    77    80    1
    21    52    50   ar
    22    44    42   ar
    23    50    51   ar
    24    50    49    1
    25    82    80    1
    26    80    81    1
    27    84    85    1
    28    81    83    1
    29    49    46    1
    30    59    57    1
    31    42    41    1
    32    42    43   ar
    33    58    57    1
    34    41    38    1
    35    85    88    1
    36    85    86    1
    37    57    54    1
    38    88    90    1
    39    88    89    1
    40    97    96    1
    41    97    91    1
    42    86    91   am
    43    86    87    2
    44    45    46    1
    45    45    39   am
    46    96    95    1
    47    46    47    1
    48    38    39    1
    49    38    37    1
    50    91    92    1
    51    39    40    2
    52    54    53    1
    53    54    55    1
    54    37    34   am
    55    47    48    2
    56    92    95    1
    57    92    93    1
    58    55    56    2
    59    31    30    2
    60    34    33    1
    61    34    35    2
    62    33    36    1
    63    33    32    1
    64    93    98   am
    65    93    94    2
    66    30    32   am
    67    30    29    1
    68    98    99    1
    69   101   100    2
    70    29    28    1
    71   109   110    1
    72   109   111    1
    73   109   106    1
    74   100    99    1
    75    99   102    1
    76   108   107    2
    77    27    25   ar
    78   105   106    1
    79   106   107    1
    80   104   102    1
    81    25    26   ar
    82    25    24    1
    83   102   103    1
    84    23    22    2
    85    24    21    1
    86    22    21    1
    87    21    20    1
    88    19    17    1
    89    15    14    2
    90    10     9    1
    91    11     9    1
    92    16    17    1
    93    16    13    1
    94    17    18    1
    95     9     8    2
    96    12    13    1
    97    14    13    1
    98     8     7    1
    99     7     6    1
   100     6     5    1
   101     5     2    1
   102     2     3    1
   103     2     1    1
   104     3     4    2
