@<TRIPOS>MOLECULE
tmp/1k70A00.pdb
 113 108 0 0 0
SMALL
GASTEIGER

@<TRIPOS>ATOM
      1  N         10.1460   29.0750  101.7890 N.3    60  HIS60      -0.1241
      2  CA         9.0620   29.5220  100.9120 C.3    60  HIS60       0.1621
      3  C          9.0170   31.0430  100.9400 C.2    60  HIS60       0.2264
      4  O          8.3610   31.6450  101.7940 O.2    60  HIS60      -0.2867
      5  CB         7.7300   28.9360  101.3850 C.3    60  HIS60       0.0745
      6  CG         7.6470   27.4510  101.2260 C.ar   60  HIS60       0.0817
      7  ND1        7.0030   26.8500  100.1650 N.ar   60  HIS60      -0.2268
      8  CD2        8.1680   26.4460  101.9700 C.ar   60  HIS60       0.1154
      9  CE1        7.1300   25.5390  100.2620 C.ar   60  HIS60       0.1986
     10  NE2        7.8330   25.2680  101.3480 N.ar   60  HIS60      -0.2212
     11  N         -0.4240   20.9700  108.4790 N.3    78  LEU78      -0.1245
     12  CA         0.0080   21.2010  107.1030 C.3    78  LEU78       0.1561
     13  C         -1.2100   21.4670  106.2240 C.2    78  LEU78       0.2260
     14  O         -1.2120   22.3850  105.3860 O.2    78  LEU78      -0.2867
     15  CB         0.7360   19.9600  106.5680 C.3    78  LEU78       0.0270
     16  CG         0.9750   19.8970  105.0520 C.3    78  LEU78       0.0019
     17  CD1        1.9530   20.9870  104.6440 C.3    78  LEU78       0.0001
     18  CD2        1.5180   18.5240  104.6660 C.3    78  LEU78       0.0001
     19  N          7.0310   24.5590   92.6260 N.3   151  PHE151     -0.1241
     20  CA         6.3430   23.7020   93.5870 C.3   151  PHE151      0.1605
     21  C          4.8400   23.6690   93.3560 C.2   151  PHE151      0.2264
     22  O          4.1560   24.6500   93.6020 O.2   151  PHE151     -0.2867
     23  CB         6.6880   24.2240   94.9960 C.3   151  PHE151      0.0534
     24  CG         5.9090   23.5840   96.1170 C.ar  151  PHE151     -0.0203
     25  CD1        5.8380   22.1950   96.2480 C.ar  151  PHE151     -0.0042
     26  CD2        5.3130   24.3820   97.0900 C.ar  151  PHE151     -0.0042
     27  CE1        5.1840   21.6100   97.3440 C.ar  151  PHE151     -0.0003
     28  CE2        4.6600   23.8120   98.1890 C.ar  151  PHE151     -0.0003
     29  CZ         4.5980   22.4200   98.3150 C.ar  151  PHE151     -0.0000
     30  N          2.0190   23.0700   94.7130 N.3   153  GLN153     -0.1245
     31  CA         1.4210   22.9360   96.0390 C.3   153  GLN153      0.1566
     32  C          0.1200   22.1460   96.1400 C.2   153  GLN153      0.2260
     33  O         -0.0930   21.4280   97.1240 O.2   153  GLN153     -0.2867
     34  CB         1.2220   24.3280   96.6620 C.3   153  GLN153      0.0367
     35  CG         0.4800   24.3240   98.0020 C.3   153  GLN153      0.0905
     36  CD         1.3510   23.8970   99.1760 C.2   153  GLN153      0.2608
     37  OE1        2.0080   24.7250   99.8100 O.2   153  GLN153     -0.2717
     38  NE2        1.3710   22.5930   99.4610 N.am  153  GLN153     -0.0878
     39  N          4.5330   16.8510   95.2830 N.3   180  ILE180     -0.1245
     40  CA         3.9770   16.6630   96.6230 C.3   180  ILE180      0.1561
     41  C          3.0510   15.4340   96.5500 C.2   180  ILE180      0.2260
     42  O          1.8320   15.5250   96.7170 O.2   180  ILE180     -0.2867
     43  CB         3.2290   17.9560   97.0700 C.3   180  ILE180      0.0252
     44  CG1        2.7460   17.7980   98.5070 C.3   180  ILE180      0.0019
     45  CG2        2.1080   18.3180   96.0860 C.3   180  ILE180      0.0019
     46  CD1        2.1740   19.0720   99.1160 C.3   180  ILE180      0.0001
     47  N          8.4440   17.6150   97.9840 N.3   211  HIS211     -0.1241
     48  CA         7.8960   17.7210   99.3400 C.3   211  HIS211      0.1621
     49  C          7.4220   16.2710   99.4580 C.2   211  HIS211      0.2264
     50  O          6.3590   15.9030   98.9520 O.2   211  HIS211     -0.2867
     51  CB         6.7150   18.6970   99.3940 C.3   211  HIS211      0.0745
     52  CG         7.1160   20.1000   99.7390 C.ar  211  HIS211      0.0817
     53  ND1        7.8600   20.8930   98.8900 N.ar  211  HIS211     -0.2268
     54  CD2        6.9010   20.8390  100.8540 C.ar  211  HIS211      0.1154
     55  CE1        8.0830   22.0620   99.4660 C.ar  211  HIS211      0.1986
     56  NE2        7.5130   22.0560  100.6590 N.ar  211  HIS211     -0.2212
     57  N          5.3060   14.3570  103.7650 N.3   214  GLU214     -0.1245
     58  CA         5.2380   15.2760  104.9080 C.3   214  GLU214      0.1567
     59  C          3.8890   15.0030  105.5620 C.2   214  GLU214      0.2260
     60  O          2.9330   15.7720  105.4120 O.2   214  GLU214     -0.2867
     61  CB         5.3140   16.7480  104.4610 C.3   214  GLU214      0.0388
     62  CG         5.4630   17.7100  105.6620 C.3   214  GLU214      0.1160
     63  CD         5.3230   19.1750  105.2850 C.2   214  GLU214      0.3649
     64  OE1        5.4240   20.0360  106.1940 O.co2 214  GLU214     -0.2457
     65  OE2        5.1060   19.4660  104.0910 O.co2 214  GLU214     -0.2457
     66  N         11.5230   16.8830  103.7660 N.3   243  HIS243     -0.1241
     67  CA        10.6950   16.4360  104.8830 C.3   243  HIS243      0.1621
     68  C         10.7880   14.9680  105.2980 C.2   243  HIS243      0.2264
     69  O         11.4090   14.6520  106.3180 O.2   243  HIS243     -0.2867
     70  CB         9.2170   16.7800  104.6350 C.3   243  HIS243      0.0745
     71  CG         8.9070   18.2460  104.7050 C.ar  243  HIS243      0.0817
     72  ND1        9.0270   18.9810  105.8670 N.ar  243  HIS243     -0.2268
     73  CD2        8.4500   19.1040  103.7620 C.ar  243  HIS243      0.1154
     74  CE1        8.6540   20.2290  105.6340 C.ar  243  HIS243      0.1986
     75  NE2        8.2990   20.3290  104.3660 N.ar  243  HIS243     -0.2212
     76  N          4.1930   21.2680  113.0530 N.3   279  LEU279     -0.1245
     77  CA         3.1380   20.6640  112.2300 C.3   279  LEU279      0.1561
     78  C          2.9150   19.1660  112.3700 C.2   279  LEU279      0.2260
     79  O          1.8240   18.6770  112.0590 O.2   279  LEU279     -0.2867
     80  CB         3.3870   20.9490  110.7530 C.3   279  LEU279      0.0270
     81  CG         3.5170   22.3930  110.2850 C.3   279  LEU279      0.0019
     82  CD1        3.6030   22.3760  108.7500 C.3   279  LEU279      0.0001
     83  CD2        2.3260   23.2210  110.7550 C.3   279  LEU279      0.0001
     84  N         12.3670   26.3960  106.2580 N.3   310  ASP310     -0.1225
     85  CA        11.0690   26.1410  105.6280 C.3   310  ASP310      0.1805
     86  C         10.1580   27.3680  105.5370 C.2   310  ASP310      0.2597
     87  O          9.8350   27.8240  104.4390 O.2   310  ASP310     -0.2718
     88  CB        10.3290   25.0030  106.3600 C.3   310  ASP310      0.1424
     89  CG         9.2420   24.3440  105.5000 C.2   310  ASP310      0.3668
     90  OD1        8.5980   23.3870  105.9830 O.co2 310  ASP310     -0.2456
     91  OD2        9.0210   24.7730  104.3520 O.co2 310  ASP310     -0.2456
     92  N          9.7480   27.8980  106.6860 N.am  311  ASP311     -0.1974
     93  CA         8.8530   29.0450  106.7170 C.3   311  ASP311      0.1709
     94  C          9.2610   30.1330  107.6940 C.2   311  ASP311      0.2293
     95  O          9.7800   29.8500  108.7710 O.2   311  ASP311     -0.2864
     96  CB         7.4310   28.5940  107.0730 C.3   311  ASP311      0.1436
     97  CG         6.9050   27.5380  106.1100 C.2   311  ASP311      0.3671
     98  OD1        7.1710   26.3470  106.3360 O.co2 311  ASP311     -0.2456
     99  OD2        6.2490   27.9140  105.1180 O.co2 311  ASP311     -0.2456
    100  N          2.3230   28.3630  107.8240 N.3   316  TRP316     -0.1241
    101  CA         2.8430   27.1590  108.4390 C.3   316  TRP316      0.1605
    102  C          3.7650   27.4290  109.6330 C.2   316  TRP316      0.2264
    103  O          4.1470   26.4840  110.3200 O.2   316  TRP316     -0.2867
    104  CB         3.5880   26.3170  107.3940 C.3   316  TRP316      0.0550
    105  CG         2.7060   25.8280  106.2760 C.ar  316  TRP316      0.0003
    106  CD1        1.8640   24.7510  106.3040 C.ar  316  TRP316      0.0946
    107  CD2        2.5350   26.4400  104.9910 C.ar  316  TRP316      0.0152
    108  NE1        1.1760   24.6560  105.1130 N.ar  316  TRP316     -0.2442
    109  CE2        1.5690   25.6810  104.2910 C.ar  316  TRP316      0.0810
    110  CE3        3.1030   27.5580  104.3630 C.ar  316  TRP316      0.0012
    111  CZ2        1.1580   26.0040  102.9910 C.ar  316  TRP316      0.0191
    112  CZ3        2.6930   27.8800  103.0680 C.ar  316  TRP316      0.0001
    113  CH2        1.7300   27.1050  102.3990 C.ar  316  TRP316      0.0015
@<TRIPOS>BOND
     1    19    20    1
     2    21    20    1
     3    21    22    2
     4    20    23    1
     5    30    31    1
     6    23    24    1
     7    39    40    1
     8    31    32    1
     9    31    34    1
    10    45    43    1
    11    24    25   ar
    12    24    26   ar
    13    32    33    2
    14    25    27   ar
    15    41    40    1
    16    41    42    2
    17    40    43    1
    18    34    35    1
    19    43    44    1
    20    26    28   ar
    21    27    29   ar
    22    47    48    1
    23    35    36    1
    24    28    29   ar
    25    44    46    1
    26    53    55   ar
    27    53    52   ar
    28    50    49    2
    29    36    38   am
    30    36    37    2
    31    48    51    1
    32    48    49    1
    33    51    52    1
    34    55    56   ar
    35    52    54   ar
    36     7     9   ar
    37     7     6   ar
    38     9    10   ar
    39    56    54   ar
    40     2     3    1
    41     2     5    1
    42     2     1    1
    43     3     4    2
    44     6     5    1
    45     6     8   ar
    46    10     8   ar
    47   113   111   ar
    48   113   112   ar
    49   111   109   ar
    50   112   110   ar
    51    73    75   ar
    52    73    71   ar
    53    57    58    1
    54    66    67    1
    55    65    63   ar
    56   109   107   ar
    57   109   108   ar
    58    91    89   ar
    59   110   107   ar
    60    75    74   ar
    61    87    86    2
    62    61    58    1
    63    61    62    1
    64    70    71    1
    65    70    67    1
    66    17    16    1
    67    18    16    1
    68    71    72   ar
    69    67    68    1
    70    58    59    1
    71   107   105   ar
    72    16    15    1
    73   108   106   ar
    74    99    97   ar
    75    63    62    1
    76    63    64   ar
    77    68    69    2
    78    14    13    2
    79    60    59    2
    80    89    90   ar
    81    89    88    1
    82    86    85    1
    83    86    92   am
    84    85    84    1
    85    85    88    1
    86    74    72   ar
    87    97    98   ar
    88    97    96    1
    89    13    12    1
    90   105   106   ar
    91   105   104    1
    92    15    12    1
    93    92    93    1
    94    93    96    1
    95    93    94    1
    96    12    11    1
    97   104   101    1
    98    94    95    2
    99   100   101    1
   100   101   102    1
   101    82    81    1
   102   102   103    2
   103    81    80    1
   104    81    83    1
   105    80    77    1
   106    79    78    2
   107    77    78    1
   108    77    76    1
