@<TRIPOS>MOLECULE
tmp/1k7dB00.pdb
 110 108 0 0 0
SMALL
GASTEIGER

@<TRIPOS>ATOM
      1  N          0.2180    5.6710    1.0870 N.3     1  SER1       -0.1217
      2  CA         0.8560    5.5970    2.4370 C.3     1  SER1        0.1889
      3  C          1.7650    6.7800    2.6560 C.2     1  SER1        0.2288
      4  O          2.4950    7.1810    1.7380 O.2     1  SER1       -0.2866
      5  CB         1.7200    4.3430    2.5040 C.3     1  SER1        0.2089
      6  OG         1.0010    3.1730    2.1930 O.3     1  SER1       -0.2183
      7  N          0.3850    3.8300    6.7490 N.3    22  PRO22      -0.2102
      8  CA         0.3390    3.0240    5.5480 C.3    22  PRO22       0.1504
      9  C         -1.1410    2.9260    5.1900 C.2    22  PRO22       0.2576
     10  O         -1.9990    2.7340    6.0920 O.2    22  PRO22      -0.2718
     11  CB         0.9310    1.6730    5.9860 C.3    22  PRO22       0.0282
     12  CG         0.7330    1.6010    7.4990 C.3    22  PRO22       0.0208
     13  CD         0.4760    3.0090    7.9620 C.3    22  PRO22       0.0893
     14  N         -1.4300    3.0750    3.8950 N.am   23  GLN23      -0.1966
     15  CA        -2.7970    3.0900    3.4280 C.3    23  GLN23       0.1733
     16  C         -3.1390    1.8370    2.6030 C.2    23  GLN23       0.2616
     17  O         -2.9560    1.8190    1.3920 O.2    23  GLN23      -0.2715
     18  CB        -3.0350    4.3830    2.6470 C.3    23  GLN23       0.0408
     19  CG        -2.8880    5.6220    3.5330 C.3    23  GLN23       0.0908
     20  CD        -3.1760    6.9240    2.8040 C.2    23  GLN23       0.2608
     21  OE1       -2.3720    7.3630    1.9810 O.2    23  GLN23      -0.2717
     22  NE2       -4.3230    7.5250    3.0860 N.am   23  GLN23      -0.0878
     23  N         -3.6080    0.7880    3.2970 N.am   24  PHE24      -0.1974
     24  CA        -3.9590   -0.4820    2.7160 C.3    24  PHE24       0.1639
     25  C         -5.4360   -0.6880    2.4240 C.2    24  PHE24       0.2290
     26  O         -5.8570   -1.8020    2.0130 O.2    24  PHE24      -0.2864
     27  CB        -3.6670   -1.5520    3.7600 C.3    24  PHE24       0.0560
     28  CG        -2.2670   -1.6680    4.1440 C.ar   24  PHE24      -0.0200
     29  CD1       -1.4050   -2.3620    3.3530 C.ar   24  PHE24      -0.0042
     30  CD2       -1.8180   -1.1610    5.3680 C.ar   24  PHE24      -0.0042
     31  CE1       -0.1010   -2.5130    3.7250 C.ar   24  PHE24      -0.0003
     32  CE2       -0.5040   -1.3190    5.7320 C.ar   24  PHE24      -0.0003
     33  CZ         0.3470   -2.0020    4.9160 C.ar   24  PHE24      -0.0000
     34  N          6.2530   -4.6540   10.1320 N.3    56  VAL56      -0.1231
     35  CA         6.5880   -3.5770    9.2130 C.3    56  VAL56       0.1692
     36  C          6.6110   -2.2420    9.9410 C.2    56  VAL56       0.2592
     37  O          7.2390   -1.2770    9.4970 O.2    56  VAL56      -0.2718
     38  CB         5.5920   -3.5490    8.0340 C.3    56  VAL56       0.0266
     39  CG1        5.9550   -2.5080    7.0350 C.3    56  VAL56       0.0020
     40  CG2        5.5670   -4.8910    7.3700 C.3    56  VAL56       0.0020
     41  N          5.9720   -2.1830   11.1000 N.am   57  PHE57      -0.1976
     42  CA         5.8680   -0.9180   11.8320 C.3    57  PHE57       0.1639
     43  C          6.2020   -1.1600   13.2950 C.2    57  PHE57       0.2290
     44  O          5.4570   -1.8140   14.0250 O.2    57  PHE57      -0.2864
     45  CB         4.4730   -0.3230   11.6600 C.3    57  PHE57       0.0560
     46  CG         3.9310   -0.4480   10.2690 C.ar   57  PHE57      -0.0200
     47  CD1        4.3750    0.3750    9.2660 C.ar   57  PHE57      -0.0042
     48  CD2        2.9640   -1.3670    9.9730 C.ar   57  PHE57      -0.0042
     49  CE1        3.8680    0.2710    7.9950 C.ar   57  PHE57      -0.0003
     50  CE2        2.4910   -1.5060    8.6780 C.ar   57  PHE57      -0.0003
     51  CZ         2.9370   -0.6850    7.7090 C.ar   57  PHE57      -0.0000
     52  N          7.4780    1.8180    6.6960 N.3    67  SER67      -0.1202
     53  CA         7.4570    1.5730    5.2520 C.3    67  SER67       0.2020
     54  C          6.4030    2.3710    4.5120 C.2    67  SER67       0.2619
     55  O          5.4040    2.7830    5.1200 O.2    67  SER67      -0.2717
     56  CB         7.2000    0.0950    4.9740 C.3    67  SER67       0.2103
     57  OG         8.3730   -0.6820    5.0650 O.3    67  SER67      -0.2182
     58  N          6.6480    2.5820    3.2080 N.am   68  THR68      -0.1938
     59  CA         5.6500    3.0540    2.2450 C.3    68  THR68       0.2028
     60  C          5.9630    2.3590    0.9300 C.2    68  THR68       0.2642
     61  O          7.1110    2.0790    0.6540 O.2    68  THR68      -0.2714
     62  CB         5.5720    4.6000    2.0690 C.3    68  THR68       0.1808
     63  OG1        6.7220    5.1350    1.3780 O.3    68  THR68      -0.2208
     64  CG2        5.5390    5.2950    3.4300 C.3    68  THR68       0.0379
     65  N          4.9440    2.0460    0.1210 N.am   69  ALA69      -0.1977
     66  CA         5.2210    1.2970   -1.0880 C.3    69  ALA69       0.1597
     67  C          6.0890    2.2050   -1.9710 C.2    69  ALA69       0.2287
     68  O          5.8440    3.3900   -2.0630 O.2    69  ALA69      -0.2864
     69  CB         3.9500    0.8910   -1.7670 C.3    69  ALA69       0.0319
     70  N          6.7860    2.0140   -5.4590 N.3    71  PHE71      -0.1241
     71  CA         6.4230    2.2230   -6.8740 C.3    71  PHE71       0.1605
     72  C          7.5710    2.5110   -7.8330 C.2    71  PHE71       0.2264
     73  O          7.4850    3.3970   -8.6470 O.2    71  PHE71      -0.2867
     74  CB         5.3690    3.3120   -6.9830 C.3    71  PHE71       0.0534
     75  CG         4.0660    2.9100   -6.3800 C.ar   71  PHE71      -0.0203
     76  CD1        3.1890    2.1130   -7.0860 C.ar   71  PHE71      -0.0042
     77  CD2        3.7360    3.2940   -5.0970 C.ar   71  PHE71      -0.0042
     78  CE1        1.9870    1.7120   -6.5100 C.ar   71  PHE71      -0.0003
     79  CE2        2.5290    2.9020   -4.5280 C.ar   71  PHE71      -0.0003
     80  CZ         1.6780    2.1100   -5.2330 C.ar   71  PHE71      -0.0000
     81  N         12.7420   -8.6150    6.4310 N.3   154  TRP154     -0.1241
     82  CA        11.8480   -7.7280    7.1660 C.3   154  TRP154      0.1605
     83  C         11.8020   -8.2180    8.6140 C.2   154  TRP154      0.2264
     84  O         11.3330   -7.4790    9.4820 O.2   154  TRP154     -0.2867
     85  CB        10.4090   -7.7230    6.5650 C.3   154  TRP154      0.0550
     86  CG         9.7810   -6.3420    6.2740 C.ar  154  TRP154      0.0003
     87  CD1        9.7670   -5.2560    7.0980 C.ar  154  TRP154      0.0946
     88  CD2        9.0920   -5.9290    5.0720 C.ar  154  TRP154      0.0152
     89  NE1        9.1170   -4.2040    6.4950 N.ar  154  TRP154     -0.2442
     90  CE2        8.6990   -4.5930    5.2470 C.ar  154  TRP154      0.0810
     91  CE3        8.7790   -6.5510    3.8650 C.ar  154  TRP154      0.0012
     92  CZ2        8.0180   -3.8790    4.2690 C.ar  154  TRP154      0.0191
     93  CZ3        8.0760   -5.8360    2.8920 C.ar  154  TRP154      0.0001
     94  CH2        7.7080   -4.5170    3.1050 C.ar  154  TRP154      0.0015
     95  N          9.9470   -1.2020   -2.0540 N.3   177  ILE177     -0.1245
     96  CA         9.3960   -0.6340   -0.8330 C.3   177  ILE177      0.1561
     97  C         10.3130    0.4240   -0.2610 C.2   177  ILE177      0.2260
     98  O         11.5140    0.2430   -0.2220 O.2   177  ILE177     -0.2867
     99  CB         9.2290   -1.7440    0.2540 C.3   177  ILE177      0.0252
    100  CG1        8.5210   -2.9850   -0.3020 C.3   177  ILE177      0.0019
    101  CG2        8.4370   -1.2150    1.4750 C.3   177  ILE177      0.0019
    102  CD1        6.9850   -2.8010   -0.4740 C.3   177  ILE177      0.0001
    103  N          4.3120    8.2510   -1.3270 N.3   241  ASN241     -0.1240
    104  CA         4.3810    7.4470   -2.5720 C.3   241  ASN241      0.1653
    105  C          4.9290    8.2970   -3.7460 C.2   241  ASN241      0.2266
    106  O          4.7970    7.9540   -4.9390 O.2   241  ASN241     -0.2867
    107  CB         3.0460    6.7630   -2.9100 C.3   241  ASN241      0.1155
    108  CG         2.5170    5.9100   -1.7800 C.2   241  ASN241      0.2627
    109  OD1        1.3770    6.1010   -1.3380 O.2   241  ASN241     -0.2716
    110  ND2        3.3200    4.9160   -1.3340 N.am  241  ASN241     -0.0877
@<TRIPOS>BOND
     1    73    72    2
     2    72    71    1
     3    76    78   ar
     4    76    75   ar
     5    74    71    1
     6    74    75    1
     7    71    70    1
     8    78    80   ar
     9    75    77   ar
    10    80    79   ar
    11    77    79   ar
    12   106   105    2
    13   105   104    1
    14   107   104    1
    15   107   108    1
    16   104   103    1
    17    68    67    2
    18    95    96    1
    19    67    66    1
    20   108   109    2
    21   108   110   am
    22    69    66    1
    23    66    65    1
    24    96    97    1
    25    96    99    1
    26   102   100    1
    27   100    99    1
    28    97    98    2
    29    65    60   am
    30    99   101    1
    31    61    60    2
    32    60    59    1
    33     1     2    1
    34    63    62    1
    35    17    16    2
    36     4     3    2
    37    21    20    2
    38    26    25    2
    39    62    59    1
    40    62    64    1
    41     6     5    1
    42    59    58    1
    43    25    24    1
    44     2     5    1
    45     2     3    1
    46    16    23   am
    47    16    15    1
    48    18    15    1
    49    18    19    1
    50    24    23    1
    51    24    27    1
    52    20    22   am
    53    20    19    1
    54    93    94   ar
    55    93    91   ar
    56    94    92   ar
    57    58    54   am
    58    29    31   ar
    59    29    28   ar
    60    15    14    1
    61    31    33   ar
    62    27    28    1
    63    91    88   ar
    64    14     9   am
    65    28    30   ar
    66    92    90   ar
    67    54    55    2
    68    54    53    1
    69    33    32   ar
    70    56    57    1
    71    56    53    1
    72    88    90   ar
    73    88    86   ar
    74     9     8    1
    75     9    10    2
    76    90    89   ar
    77    53    52    1
    78    30    32   ar
    79     8    11    1
    80     8     7    1
    81    11    12    1
    82    86    85    1
    83    86    87   ar
    84    81    82    1
    85    89    87   ar
    86    85    82    1
    87     7    13    1
    88    39    38    1
    89    82    83    1
    90    40    38    1
    91    12    13    1
    92    51    49   ar
    93    51    50   ar
    94    49    47   ar
    95    38    35    1
    96    83    84    2
    97    50    48   ar
    98    35    36    1
    99    35    34    1
   100    47    46   ar
   101    37    36    2
   102    36    41   am
   103    48    46   ar
   104    46    45    1
   105    41    42    1
   106    45    42    1
   107    42    43    1
   108    43    44    2
