@<TRIPOS>MOLECULE
tmp/1k7fA00.pdb
 144 136 0 0 0
SMALL
GASTEIGER

@<TRIPOS>ATOM
      1  N         44.9010   33.0610   16.4260 N.3    22  PHE22      -0.1241
      2  CA        46.1940   32.7980   17.0430 C.3    22  PHE22       0.1605
      3  C         47.2180   33.9620   16.9280 C.2    22  PHE22       0.2264
      4  O         47.4030   34.4820   15.8020 O.2    22  PHE22      -0.2867
      5  CB        46.8500   31.6350   16.3770 C.3    22  PHE22       0.0534
      6  CG        48.3540   31.5430   16.7290 C.ar   22  PHE22      -0.0203
      7  CD1       49.3210   32.3630   15.9990 C.ar   22  PHE22      -0.0042
      8  CD2       48.7960   30.7190   17.7530 C.ar   22  PHE22      -0.0042
      9  CE1       50.6920   32.3120   16.3440 C.ar   22  PHE22      -0.0003
     10  CE2       50.1670   30.6570   18.1180 C.ar   22  PHE22      -0.0003
     11  CZ        51.1380   31.4530   17.3600 C.ar   22  PHE22      -0.0000
     12  N         57.6670   23.5700   13.4310 N.3    59  ALA59      -0.1231
     13  CA        56.4340   23.1660   12.8290 C.3    59  ALA59       0.1694
     14  C         55.8900   24.3940   12.2110 C.2    59  ALA59       0.2592
     15  O         54.7420   24.3740   11.7220 O.2    59  ALA59      -0.2718
     16  CB        55.4890   22.6000   13.8330 C.3    59  ALA59       0.0304
     17  N         56.7260   25.4280   12.2100 N.am   60  ASP60      -0.1960
     18  CA        56.3700   26.7560   11.7210 C.3    60  ASP60       0.1840
     19  C         57.1340   27.3280   10.4740 C.2    60  ASP60       0.2619
     20  O         58.4130   27.0230   10.2120 O.2    60  ASP60      -0.2715
     21  CB        56.6530   27.7260   12.8710 C.3    60  ASP60       0.1450
     22  CG        55.5980   27.6100   14.0730 C.2    60  ASP60       0.3671
     23  OD1       54.3020   27.8300   13.9220 O.co2  60  ASP60      -0.2456
     24  OD2       55.9510   27.4040   15.3050 O.co2  60  ASP60      -0.2456
     25  N         56.3290   28.0640    9.7100 N.am   61  GLY61      -0.2012
     26  CA        56.7810   28.8930    8.5440 C.3    61  GLY61       0.1506
     27  C         57.1280   30.3770    8.9090 C.3    61  GLY61       0.2054
     28  O         57.4320   30.4380   10.1200 O.3    61  GLY61      -0.2184
     29  N         55.1610   33.8500   10.8840 N.3    64  ILE64      -0.1245
     30  CA        55.1930   33.3640   12.2460 C.3    64  ILE64       0.1561
     31  C         56.5740   33.3830   12.6910 C.2    64  ILE64       0.2260
     32  O         56.8880   33.8230   13.7870 O.2    64  ILE64      -0.2867
     33  CB        54.7540   31.9440   12.3170 C.3    64  ILE64       0.0252
     34  CG1       53.3370   31.8390   11.7390 C.3    64  ILE64       0.0019
     35  CG2       54.6910   31.5450   13.7340 C.3    64  ILE64       0.0019
     36  CD1       52.3950   32.8660   12.4290 C.3    64  ILE64       0.0001
     37  N         49.9850   26.7770   22.0500 N.3   100  LEU100     -0.1245
     38  CA        50.6810   25.9320   21.0700 C.3   100  LEU100      0.1561
     39  C         52.2010   26.0240   21.3830 C.2   100  LEU100      0.2260
     40  O         52.7690   27.1290   21.3490 O.2   100  LEU100     -0.2867
     41  CB        50.3900   26.3680   19.6200 C.3   100  LEU100      0.0270
     42  CG        48.9260   26.4910   19.1460 C.3   100  LEU100      0.0019
     43  CD1       48.9120   26.8140   17.7230 C.3   100  LEU100      0.0001
     44  CD2       48.1610   25.1840   19.2800 C.3   100  LEU100      0.0001
     45  N         56.2810   23.7870   22.0610 N.3   102  TYR102     -0.1241
     46  CA        57.1630   22.6960   21.5610 C.3   102  TYR102      0.1605
     47  C         57.6360   21.9450   22.7600 C.2   102  TYR102      0.2264
     48  O         57.6560   22.4180   23.9030 O.2   102  TYR102     -0.2867
     49  CB        58.3340   23.1710   20.5760 C.3   102  TYR102      0.0534
     50  CG        57.8280   23.6180   19.2170 C.ar  102  TYR102     -0.0201
     51  CD1       57.6850   22.7640   18.1530 C.ar  102  TYR102     -0.0009
     52  CD2       57.3740   24.9490   19.0090 C.ar  102  TYR102     -0.0009
     53  CE1       57.1810   23.2210   16.9430 C.ar  102  TYR102      0.0417
     54  CE2       56.8590   25.3770   17.7980 C.ar  102  TYR102      0.0417
     55  CZ        56.7490   24.5370   16.8060 C.ar  102  TYR102      0.1957
     56  OH        56.2280   24.9890   15.6450 O.3   102  TYR102     -0.2866
     57  N         48.6130   22.2480   23.2000 N.3   127  LEU127     -0.1245
     58  CA        49.0540   21.3730   22.1220 C.3   127  LEU127      0.1561
     59  C         50.5930   21.4360   22.0390 C.2   127  LEU127      0.2260
     60  O         51.2260   22.5330   21.8690 O.2   127  LEU127     -0.2867
     61  CB        48.5110   21.9150   20.8090 C.3   127  LEU127      0.0270
     62  CG        48.5270   21.0270   19.5050 C.3   127  LEU127      0.0019
     63  CD1       47.7660   21.7300   18.1610 C.3   127  LEU127      0.0001
     64  CD2       49.7740   20.2650   19.1330 C.3   127  LEU127      0.0001
     65  N         53.2900   20.5020   19.7240 N.3   129  ALA129     -0.1245
     66  CA        53.3660   20.2050   18.2920 C.3   129  ALA129      0.1562
     67  C         54.3570   19.1560   17.8040 C.2   129  ALA129      0.2260
     68  O         54.0980   18.4650   16.7980 O.2   129  ALA129     -0.2867
     69  CB        53.5440   21.5460   17.5050 C.3   129  ALA129      0.0290
     70  N         46.9140   17.0580   17.0110 N.3   153  ILE153     -0.1245
     71  CA        46.7450   17.2950   15.6310 C.3   153  ILE153      0.1561
     72  C         46.2910   16.0740   14.8650 C.2   153  ILE153      0.2260
     73  O         46.8610   15.0140   15.0050 O.2   153  ILE153     -0.2867
     74  CB        48.0860   17.7680   15.0210 C.3   153  ILE153      0.0252
     75  CG1       48.3760   19.1980   15.5440 C.3   153  ILE153      0.0019
     76  CG2       48.0670   17.7360   13.4220 C.3   153  ILE153      0.0019
     77  CD1       49.7940   19.8480   15.0890 C.3   153  ILE153      0.0001
     78  N         42.6180   19.5200   16.8580 N.3   175  TYR175     -0.1298
     79  CA        43.2570   20.3910   15.8440 C.3   175  TYR175      0.1290
     80  C         43.2780   19.6890   14.4480 C.3   175  TYR175      0.2013
     81  O         44.1200   18.7430   14.2040 O.3   175  TYR175     -0.2188
     82  CB        44.7180   20.8010   16.2540 C.3   175  TYR175      0.0480
     83  CG        45.2440   22.0630   15.5510 C.ar  175  TYR175     -0.0204
     84  CD1       45.4970   22.1080   14.1400 C.ar  175  TYR175     -0.0009
     85  CD2       45.3730   23.2270   16.2680 C.ar  175  TYR175     -0.0009
     86  CE1       46.0090   23.3280   13.4990 C.ar  175  TYR175      0.0417
     87  CE2       45.8210   24.3880   15.5980 C.ar  175  TYR175      0.0417
     88  CZ        46.0820   24.4250   14.2780 C.ar  175  TYR175      0.1957
     89  OH        46.4520   25.5950   13.6660 O.3   175  TYR175     -0.2866
     90  N         44.1690   19.9150   10.8580 N.3   177  LEU177     -0.1245
     91  CA        45.1580   20.5820   10.0870 C.3   177  LEU177      0.1561
     92  C         44.7750   20.7210    8.6110 C.2   177  LEU177      0.2260
     93  O         44.3880   19.7630    8.0040 O.2   177  LEU177     -0.2867
     94  CB        46.5560   19.8680   10.2760 C.3   177  LEU177      0.0270
     95  CG        47.7630   20.4040    9.4820 C.3   177  LEU177      0.0019
     96  CD1       47.9730   21.7900    9.8910 C.3   177  LEU177      0.0001
     97  CD2       49.1550   19.5550    9.5240 C.3   177  LEU177      0.0001
     98  N         45.2330   26.1820    9.8040 N.3   198  PHE198     -0.1227
     99  CA        46.2440   26.3190    8.7120 C.3   198  PHE198      0.1736
    100  C         45.6080   26.9130    7.4950 C.2   198  PHE198      0.2596
    101  O         44.5680   26.4360    6.9930 O.2   198  PHE198     -0.2718
    102  CB        46.9970   25.0570    8.3100 C.3   198  PHE198      0.0547
    103  CG        48.1570   25.3520    7.3750 C.ar  198  PHE198     -0.0202
    104  CD1       49.0680   26.3320    7.6930 C.ar  198  PHE198     -0.0042
    105  CD2       48.2670   24.6860    6.1830 C.ar  198  PHE198     -0.0042
    106  CE1       50.1500   26.6090    6.8480 C.ar  198  PHE198     -0.0003
    107  CE2       49.3380   24.9450    5.2900 C.ar  198  PHE198     -0.0003
    108  CZ        50.2550   25.9240    5.6040 C.ar  198  PHE198     -0.0000
    109  N         46.1100   28.0440    7.1190 N.am  199  GLY199     -0.1942
    110  CA        45.5670   28.5450    5.8630 C.3   199  GLY199      0.2014
    111  C         44.2150   29.2660    5.9010 C.2   199  GLY199      0.2638
    112  O         43.6130   29.4440    4.8130 O.2   199  GLY199     -0.2714
    113  N         43.6880   29.5610    7.0710 N.am  200  ILE200     -0.1973
    114  CA        42.3840   30.2250    7.1310 C.3   200  ILE200      0.1635
    115  C         42.5960   31.7030    7.1450 C.2   200  ILE200      0.2290
    116  O         43.0580   32.2440    8.1220 O.2   200  ILE200     -0.2864
    117  CB        41.6730   29.8310    8.4370 C.3   200  ILE200      0.0496
    118  CG1       41.7790   28.2460    8.5550 C.2   200  ILE200     -0.0243
    119  CG2       40.3820   30.4210    8.4130 C.3   200  ILE200      0.0069
    120  CD1       40.8750   27.5450    7.8030 C.2   200  ILE200     -0.0049
    121  N         40.6240   28.1040   13.1410 N.3   218  ILE218     -0.1231
    122  CA        41.7300   28.8110   13.7810 C.3   218  ILE218      0.1692
    123  C         42.4760   29.6270   12.6940 C.2   218  ILE218      0.2593
    124  O         42.9110   29.1390   11.6720 O.2   218  ILE218     -0.2718
    125  CB        42.6790   27.8560   14.4630 C.3   218  ILE218      0.0266
    126  CG1       41.9320   27.2560   15.6380 C.3   218  ILE218      0.0019
    127  CG2       44.1070   28.6290   14.8510 C.3   218  ILE218      0.0020
    128  CD1       42.7000   26.0200   16.3100 C.3   218  ILE218      0.0001
    129  N         42.6330   30.9330   12.9420 N.am  219  SER219     -0.1938
    130  CA        43.3040   31.8330   11.9660 C.3   219  SER219      0.2055
    131  C         44.5680   32.4450   12.6210 C.2   219  SER219      0.2644
    132  O         44.4520   33.1150   13.6370 O.2   219  SER219     -0.2714
    133  CB        42.2980   32.8490   11.2780 C.3   219  SER219      0.2130
    134  OG        43.0430   33.7890   10.4870 O.3   219  SER219     -0.2179
    135  N         45.7590   32.1560   12.1150 N.am  220  GLY220     -0.1939
    136  CA        47.0060   32.6390   12.7820 C.3   220  GLY220      0.2014
    137  C         47.8880   33.4690   11.7870 C.2   220  GLY220      0.2639
    138  O         48.1150   34.6780   11.9800 O.2   220  GLY220     -0.2714
    139  N         48.3520   32.8810   10.6900 N.am  221  SER221     -0.1949
    140  CA        49.0700   33.7770    9.7320 C.3   221  SER221      0.1924
    141  C         48.3770   35.0630    9.2740 C.2   221  SER221      0.2314
    142  O         49.0300   36.1080    9.2460 O.2   221  SER221     -0.2863
    143  CB        49.7910   33.0580    8.5800 C.3   221  SER221      0.2116
    144  OG        50.2930   31.8080    9.0590 O.3   221  SER221     -0.2180
@<TRIPOS>BOND
     1   112   111    2
     2   107   108   ar
     3   107   105   ar
     4   108   106   ar
     5   110   111    1
     6   110   109    1
     7   111   113   am
     8   105   103   ar
     9   106   104   ar
    10   101   100    2
    11   113   114    1
    12   109   100   am
    13   114   115    1
    14   114   117    1
    15   115   116    2
    16   103   104   ar
    17   103   102    1
    18   100    99    1
    19   120   118    2
    20    93    92    2
    21   102    99    1
    22   119   117    1
    23   117   118    1
    24    26    27    1
    25    26    25    1
    26   143   144    1
    27   143   140    1
    28    92    91    1
    29    99    98    1
    30    27    28    1
    31   142   141    2
    32   141   140    1
    33    95    97    1
    34    95    96    1
    35    95    94    1
    36    25    19   am
    37   140   139    1
    38    91    94    1
    39    91    90    1
    40    20    19    2
    41    19    18    1
    42   134   133    1
    43   139   137   am
    44    29    30    1
    45   133   130    1
    46   124   123    2
    47    18    17    1
    48    18    21    1
    49    15    14    2
    50    34    33    1
    51    34    36    1
    52   137   138    2
    53   137   136    1
    54   130   131    1
    55   130   129    1
    56   135   131   am
    57   135   136    1
    58    17    14   am
    59    14    13    1
    60    30    33    1
    61    30    31    1
    62    33    35    1
    63   131   132    2
    64    31    32    2
    65   123   129   am
    66   123   122    1
    67    13    12    1
    68    13    16    1
    69    21    22    1
    70   121   122    1
    71    76    74    1
    72    86    84   ar
    73    86    88   ar
    74    89    88    1
    75   122   125    1
    76    23    22   ar
    77    22    24   ar
    78    84    83   ar
    79    81    80    1
    80    88    87   ar
    81    80    79    1
    82   125   127    1
    83   125   126    1
    84    72    73    2
    85    72    71    1
    86    74    75    1
    87    74    71    1
    88    77    75    1
    89    83    82    1
    90    83    85   ar
    91    87    85   ar
    92    71    70    1
    93   126   128    1
    94    56    55    1
    95     4     3    2
    96    79    82    1
    97    79    78    1
    98     7     9   ar
    99     7     6   ar
   100     9    11   ar
   101     5     6    1
   102     5     2    1
   103     1     2    1
   104     6     8   ar
   105    68    67    2
   106    55    53   ar
   107    55    54   ar
   108     3     2    1
   109    53    51   ar
   110    11    10   ar
   111    69    66    1
   112    43    42    1
   113     8    10   ar
   114    54    52   ar
   115    67    66    1
   116    51    50   ar
   117    63    62    1
   118    66    65    1
   119    52    50   ar
   120    64    62    1
   121    42    44    1
   122    42    41    1
   123    50    49    1
   124    62    61    1
   125    41    38    1
   126    49    46    1
   127    61    58    1
   128    38    39    1
   129    38    37    1
   130    40    39    2
   131    46    45    1
   132    46    47    1
   133    60    59    2
   134    59    58    1
   135    58    57    1
   136    47    48    2
