@<TRIPOS>MOLECULE
tmp/1k7hB00.pdb
 99 97 0 0 0
SMALL
GASTEIGER

@<TRIPOS>ATOM
      1  N         41.4510   31.1430   19.8640 N.3   204  ARG204     -0.1245
      2  CA        41.4460   32.4510   19.1270 C.3   204  ARG204      0.1563
      3  C         42.4660   32.4930   17.9880 C.2   204  ARG204      0.2260
      4  O         42.2150   33.0760   16.9320 O.2   204  ARG204     -0.2867
      5  CB        41.7110   33.6300   20.1000 C.3   204  ARG204      0.0307
      6  CG        40.6690   33.8670   21.0980 C.3   204  ARG204      0.0489
      7  CD        40.8630   35.1360   21.8720 C.3   204  ARG204      0.2205
      8  NE        42.1050   35.1910   22.6260 N.pl3 204  ARG204     -0.0865
      9  CZ        42.1700   35.1430   23.9420 C.cat 204  ARG204      0.5346
     10  NH1       41.0870   35.0070   24.6560 N.pl3 204  ARG204      0.1354
     11  NH2       43.3230   35.2390   24.5360 N.pl3 204  ARG204      0.1354
     12  N         41.7350   32.2290   14.2000 N.3   207  PHE207     -0.1227
     13  CA        40.7300   33.1470   13.7150 C.3   207  PHE207      0.1736
     14  C         41.2790   34.5080   13.2990 C.2   207  PHE207      0.2595
     15  O         40.5340   35.3510   12.8600 O.2   207  PHE207     -0.2718
     16  CB        39.6520   33.3090   14.7670 C.3   207  PHE207      0.0547
     17  CG        38.8350   32.0460   14.9730 C.ar  207  PHE207     -0.0202
     18  CD1       39.2840   31.0640   15.8080 C.ar  207  PHE207     -0.0042
     19  CD2       37.6710   31.8370   14.2670 C.ar  207  PHE207     -0.0042
     20  CE1       38.5470   29.9060   15.9750 C.ar  207  PHE207     -0.0003
     21  CE2       36.9440   30.6550   14.4310 C.ar  207  PHE207     -0.0003
     22  CZ        37.4100   29.6990   15.2620 C.ar  207  PHE207     -0.0000
     23  N         42.5550   34.7430   13.4840 N.am  208  PHE208     -0.1976
     24  CA        43.0930   36.0500   13.0370 C.3   208  PHE208      0.1639
     25  C         44.4880   35.8450   12.4980 C.2   208  PHE208      0.2290
     26  O         45.1470   34.8370   12.7870 O.2   208  PHE208     -0.2864
     27  CB        43.0540   37.0850   14.1390 C.3   208  PHE208      0.0560
     28  CG        43.8910   36.7450   15.3220 C.ar  208  PHE208     -0.0200
     29  CD1       43.3560   36.0120   16.3580 C.ar  208  PHE208     -0.0042
     30  CD2       45.1940   37.2200   15.4400 C.ar  208  PHE208     -0.0042
     31  CE1       44.1150   35.6960   17.4800 C.ar  208  PHE208     -0.0003
     32  CE2       45.9780   36.9180   16.5890 C.ar  208  PHE208     -0.0003
     33  CZ        45.4020   36.1650   17.6240 C.ar  208  PHE208     -0.0000
     34  N         48.2590   40.2030   12.9620 N.3   212  ALA212     -0.1231
     35  CA        47.4250   40.7650   14.0080 C.3   212  ALA212      0.1694
     36  C         47.8120   40.1360   15.3240 C.2   212  ALA212      0.2592
     37  O         48.4410   39.0760   15.3610 O.2   212  ALA212     -0.2718
     38  CB        45.9790   40.5450   13.7030 C.3   212  ALA212      0.0304
     39  N         47.4340   40.8030   16.4030 N.am  213  LEU213     -0.1966
     40  CA        47.8080   40.3710   17.7330 C.3   213  LEU213      0.1728
     41  C         46.5940   39.9660   18.5150 C.2   213  LEU213      0.2616
     42  O         45.5240   40.5260   18.3530 O.2   213  LEU213     -0.2715
     43  CB        48.5140   41.5200   18.4430 C.3   213  LEU213      0.0311
     44  CG        49.8050   42.0160   17.8060 C.3   213  LEU213      0.0022
     45  CD1       50.3950   43.1640   18.6820 C.3   213  LEU213      0.0001
     46  CD2       50.8490   40.9330   17.6300 C.3   213  LEU213      0.0001
     47  N         46.7890   38.9660   19.3760 N.am  214  ASP214     -0.1957
     48  CA        45.7450   38.3990   20.1960 C.3   214  ASP214      0.1840
     49  C         45.2070   39.3640   21.2300 C.2   214  ASP214      0.2618
     50  O         46.0020   40.0210   21.9130 O.2   214  ASP214     -0.2715
     51  CB        46.3860   37.2450   20.9590 C.3   214  ASP214      0.1450
     52  CG        45.3820   36.3880   21.7150 C.2   214  ASP214      0.3671
     53  OD1       44.4710   35.8550   21.0610 O.co2 214  ASP214     -0.2456
     54  OD2       45.3730   36.2390   22.9520 O.co2 214  ASP214     -0.2456
     55  N         43.8860   39.4050   21.3700 N.am  215  ILE215     -0.2030
     56  CA        43.3030   39.9760   22.5560 C.3   215  ILE215      0.1282
     57  C         43.9340   39.1250   23.7080 C.3   215  ILE215      0.2035
     58  O         44.2620   37.8730   23.6450 O.3   215  ILE215     -0.2185
     59  CB        41.7700   39.9420   22.5570 C.3   215  ILE215      0.0226
     60  CG1       41.2020   40.8220   21.4340 C.3   215  ILE215      0.0018
     61  CG2       41.2240   40.5580   23.8390 C.3   215  ILE215      0.0018
     62  CD1       39.6760   41.0120   21.4840 C.3   215  ILE215      0.0001
     63  N         40.4230   37.9130    9.1510 N.3   228  HIS228     -0.1241
     64  CA        39.9270   38.1980   10.5110 C.3   228  HIS228      0.1621
     65  C         38.5540   37.5860   10.6010 C.2   228  HIS228      0.2264
     66  O         37.5540   38.2480   10.2990 O.2   228  HIS228     -0.2867
     67  CB        39.8830   39.7270   10.8140 C.3   228  HIS228      0.0745
     68  CG        41.1870   40.3900   10.6050 C.ar  228  HIS228      0.0817
     69  ND1       41.4120   41.7470   10.5780 N.ar  228  HIS228     -0.2268
     70  CD2       42.3560   39.8220   10.3050 C.ar  228  HIS228      0.1154
     71  CE1       42.7020   41.9740   10.3360 C.ar  228  HIS228      0.1986
     72  NE2       43.2880   40.8170   10.1570 N.ar  228  HIS228     -0.2212
     73  N         36.8260   36.6300   13.2820 N.3   230  ILE230     -0.1231
     74  CA        35.8920   37.0360   14.3020 C.3   230  ILE230      0.1692
     75  C         35.0910   38.2220   13.7930 C.2   230  ILE230      0.2592
     76  O         33.8610   38.3460   14.0380 O.2   230  ILE230     -0.2718
     77  CB        36.6410   37.3920   15.6130 C.3   230  ILE230      0.0266
     78  CG1       37.4810   36.1750   16.0780 C.3   230  ILE230      0.0019
     79  CG2       35.6600   37.9100   16.6160 C.3   230  ILE230      0.0020
     80  CD1       36.6440   34.9690   16.3580 C.3   230  ILE230      0.0001
     81  N         35.7930   39.1640   13.2000 N.am  231  THR231     -0.1953
     82  CA        35.0380   40.3240   12.7210 C.3   231  THR231      0.1897
     83  C         34.1420   39.9030   11.5630 C.2   231  THR231      0.2313
     84  O         33.1220   40.4940   11.3530 O.2   231  THR231     -0.2863
     85  CB        35.8940   41.5720   12.3430 C.3   231  THR231      0.1794
     86  OG1       37.0130   41.1910   11.5520 O.3   231  THR231     -0.2208
     87  CG2       36.4630   42.2180   13.5380 C.3   231  THR231      0.0378
     88  N         30.9930   39.1680   21.3010 N.3   246  TYR246     -0.1241
     89  CA        32.2380   38.4520   21.3720 C.3   246  TYR246      0.1605
     90  C         32.8480   38.7860   22.7150 C.2   246  TYR246      0.2264
     91  O         33.0650   39.9570   23.0350 O.2   246  TYR246     -0.2867
     92  CB        33.2360   38.8760   20.2870 C.3   246  TYR246      0.0534
     93  CG        34.5980   38.2130   20.2960 C.ar  246  TYR246     -0.0201
     94  CD1       34.7370   36.8470   20.3700 C.ar  246  TYR246     -0.0009
     95  CD2       35.7560   38.9650   20.2120 C.ar  246  TYR246     -0.0009
     96  CE1       35.9610   36.2580   20.3680 C.ar  246  TYR246      0.0417
     97  CE2       36.9950   38.4070   20.2090 C.ar  246  TYR246      0.0417
     98  CZ        37.1020   37.0270   20.2970 C.ar  246  TYR246      0.1957
     99  OH        38.2950   36.4500   20.3070 O.3   246  TYR246     -0.2866
@<TRIPOS>BOND
     1    63    64    1
     2    72    70   ar
     3    72    71   ar
     4    66    65    2
     5    70    68   ar
     6    71    69   ar
     7    64    65    1
     8    64    67    1
     9    69    68   ar
    10    68    67    1
    11    84    83    2
    12    86    85    1
    13    83    82    1
    14    85    82    1
    15    85    87    1
    16    25    26    2
    17    25    24    1
    18    82    81    1
    19    15    14    2
    20    34    35    1
    21    24    23    1
    22    24    27    1
    23    81    75   am
    24    73    74    1
    25    14    23   am
    26    14    13    1
    27    38    35    1
    28    13    12    1
    29    13    16    1
    30    75    76    2
    31    75    74    1
    32    35    36    1
    33    27    28    1
    34    19    21   ar
    35    19    17   ar
    36    74    77    1
    37    21    22   ar
    38    16    17    1
    39    17    18   ar
    40    22    20   ar
    41    28    30   ar
    42    28    29   ar
    43    36    37    2
    44    36    39   am
    45    30    32   ar
    46    77    78    1
    47    77    79    1
    48    18    20   ar
    49    78    80    1
    50    29    31   ar
    51    39    40    1
    52    32    33   ar
    53     4     3    2
    54    31    33   ar
    55    46    44    1
    56    40    43    1
    57    40    41    1
    58    44    43    1
    59    44    45    1
    60     3     2    1
    61    42    41    2
    62    41    47   am
    63     2     1    1
    64     2     5    1
    65    47    48    1
    66     5     6    1
    67    48    51    1
    68    48    49    1
    69    97    95   ar
    70    97    98   ar
    71    95    93   ar
    72    92    93    1
    73    92    89    1
    74    93    94   ar
    75    98    99    1
    76    98    96   ar
    77    96    94   ar
    78    51    52    1
    79    53    52   ar
    80     6     7    1
    81    49    55   am
    82    49    50    2
    83    88    89    1
    84    55    56    1
    85    89    90    1
    86    60    62    1
    87    60    59    1
    88    52    54   ar
    89     7     8    1
    90    56    59    1
    91    56    57    1
    92    59    61    1
    93     8     9    2
    94    90    91    2
    95    58    57    1
    96     9    11    1
    97     9    10    1
