@<TRIPOS>MOLECULE
tmp/1k7sA00.pdb
 156 156 0 0 0
SMALL
GASTEIGER

@<TRIPOS>ATOM
      1  N         24.3550   14.4070   21.8660 N.3    11  GLU11      -0.1231
      2  CA        24.5570   14.0140   23.2520 C.3    11  GLU11       0.1699
      3  C         24.0500   15.1700   24.0980 C.2    11  GLU11       0.2592
      4  O         24.0590   16.3110   23.6420 O.2    11  GLU11      -0.2718
      5  CB        26.0400   13.7680   23.5230 C.3    11  GLU11       0.0402
      6  CG        26.3200   12.6250   24.4850 C.3    11  GLU11       0.1161
      7  CD        25.8920   12.9120   25.9070 C.2    11  GLU11       0.3649
      8  OE1       26.4530   13.8410   26.5330 O.co2  11  GLU11      -0.2457
      9  OE2       24.9950   12.1990   26.4030 O.co2  11  GLU11      -0.2457
     10  N         23.6280   14.8800   25.3260 N.am   12  TRP12      -0.1976
     11  CA        23.0780   15.9030   26.2120 C.3    12  TRP12       0.1640
     12  C         24.0690   16.8710   26.8420 C.2    12  TRP12       0.2290
     13  O         23.6680   17.8440   27.4710 O.2    12  TRP12      -0.2864
     14  CB        22.2180   15.2400   27.3040 C.3    12  TRP12       0.0576
     15  CG        21.1830   14.3040   26.7360 C.ar   12  TRP12       0.0006
     16  CD1       20.5820   14.3940   25.5070 C.ar   12  TRP12       0.0946
     17  CD2       20.6610   13.1190   27.3470 C.ar   12  TRP12       0.0152
     18  NE1       19.7280   13.3340   25.3130 N.ar   12  TRP12      -0.2442
     19  CE2       19.7570   12.5360   26.4260 C.ar   12  TRP12       0.0810
     20  CE3       20.8640   12.4930   28.5820 C.ar   12  TRP12       0.0012
     21  CZ2       19.0630   11.3510   26.7040 C.ar   12  TRP12       0.0191
     22  CZ3       20.1670   11.3120   28.8590 C.ar   12  TRP12       0.0001
     23  CH2       19.2820   10.7590   27.9240 C.ar   12  TRP12       0.0015
     24  N         14.1730   10.4260   26.6410 N.3    33  ASN33      -0.1240
     25  CA        14.8750   10.2350   27.9060 C.3    33  ASN33       0.1653
     26  C         15.4750   11.5190   28.4280 C.2    33  ASN33       0.2266
     27  O         15.6990   11.6630   29.6220 O.2    33  ASN33      -0.2867
     28  CB        15.9640    9.1950   27.7490 C.3    33  ASN33       0.1155
     29  CG        15.4020    7.8270   27.5050 C.2    33  ASN33       0.2627
     30  OD1       14.6360    7.3020   28.3210 O.2    33  ASN33      -0.2716
     31  ND2       15.7640    7.2350   26.3720 N.am   33  ASN33      -0.0877
     32  N         16.0250   12.2130   32.4590 N.3    37  TRP37      -0.1241
     33  CA        17.3150   12.3770   33.1240 C.3    37  TRP37       0.1605
     34  C         17.8360   13.8070   33.2470 C.2    37  TRP37       0.2264
     35  O         18.4040   14.1700   34.2790 O.2    37  TRP37      -0.2867
     36  CB        18.3740   11.5250   32.4330 C.3    37  TRP37       0.0550
     37  CG        18.0820   10.0750   32.4430 C.ar   37  TRP37       0.0003
     38  CD1       17.3650    9.3780   31.5150 C.ar   37  TRP37       0.0946
     39  CD2       18.5690    9.1100   33.3850 C.ar   37  TRP37       0.0152
     40  NE1       17.3880    8.0330   31.8120 N.ar   37  TRP37      -0.2442
     41  CE2       18.1200    7.8420   32.9540 C.ar   37  TRP37       0.0810
     42  CE3       19.3470    9.1920   34.5470 C.ar   37  TRP37       0.0012
     43  CZ2       18.4300    6.6660   33.6420 C.ar   37  TRP37       0.0191
     44  CZ3       19.6520    8.0190   35.2320 C.ar   37  TRP37       0.0001
     45  CH2       19.1960    6.7740   34.7740 C.ar   37  TRP37       0.0015
     46  N         21.5000    8.4010   21.2570 N.3    53  ARG53      -0.1231
     47  CA        22.8260    9.0000   21.1670 C.3    53  ARG53       0.1694
     48  C         23.8500    7.9630   20.7250 C.2    53  ARG53       0.2592
     49  O         24.8470    8.2880   20.0750 O.2    53  ARG53      -0.2718
     50  CB        23.2260    9.6010   22.5140 C.3    53  ARG53       0.0321
     51  CG        22.2150   10.5970   23.0500 C.3    53  ARG53       0.0489
     52  CD        21.6420   10.1250   24.3670 C.3    53  ARG53       0.2205
     53  NE        22.5810   10.3340   25.4570 N.pl3  53  ARG53      -0.0865
     54  CZ        22.6360    9.5920   26.5590 C.cat  53  ARG53       0.5346
     55  NH1       21.8020    8.5780   26.7220 N.pl3  53  ARG53       0.1354
     56  NH2       23.5270    9.8750   27.4990 N.pl3  53  ARG53       0.1354
     57  N         23.5760    6.7070   21.0540 N.am   54  THR54      -0.1953
     58  CA        24.4630    5.6080   20.7080 C.3    54  THR54       0.1897
     59  C         24.3200    5.1290   19.2790 C.2    54  THR54       0.2313
     60  O         25.3060    4.7700   18.6530 O.2    54  THR54      -0.2863
     61  CB        24.2440    4.4040   21.6380 C.3    54  THR54       0.1794
     62  OG1       22.8420    4.1610   21.7770 O.3    54  THR54      -0.2208
     63  CG2       24.8560    4.6680   22.9980 C.3    54  THR54       0.0378
     64  N         32.1760    9.1920   23.5350 N.3    75  TYR75      -0.1241
     65  CA        30.8440    8.6120   23.6660 C.3    75  TYR75       0.1605
     66  C         30.1080    8.6190   22.3220 C.2    75  TYR75       0.2264
     67  O         30.3380    9.4920   21.4830 O.2    75  TYR75      -0.2867
     68  CB        30.0190    9.3950   24.6940 C.3    75  TYR75       0.0534
     69  CG        28.6320    8.8230   24.9230 C.ar   75  TYR75      -0.0201
     70  CD1       28.4090    7.8230   25.8750 C.ar   75  TYR75      -0.0009
     71  CD2       27.5470    9.2530   24.1560 C.ar   75  TYR75      -0.0009
     72  CE1       27.1380    7.2670   26.0550 C.ar   75  TYR75       0.0417
     73  CE2       26.2810    8.7080   24.3270 C.ar   75  TYR75       0.0417
     74  CZ        26.0800    7.7170   25.2770 C.ar   75  TYR75       0.1957
     75  OH        24.8180    7.1930   25.4490 O.3    75  TYR75      -0.2866
     76  N         20.0720    2.5270   39.5090 N.3   152  ILE152     -0.1245
     77  CA        20.1380    1.9990   38.1490 C.3   152  ILE152      0.1561
     78  C         19.2090    0.7920   38.0270 C.2   152  ILE152      0.2260
     79  O         18.6100    0.5440   36.9840 O.2   152  ILE152     -0.2867
     80  CB        21.5800    1.5830   37.8040 C.3   152  ILE152      0.0252
     81  CG1       22.5040    2.7910   37.9520 C.3   152  ILE152      0.0019
     82  CG2       21.6480    1.0350   36.3900 C.3   152  ILE152      0.0019
     83  CD1       22.0550    4.0160   37.1490 C.3   152  ILE152      0.0001
     84  N         24.3290    4.1660   41.7890 N.3   158  LEU158     -0.1245
     85  CA        25.4750    4.8760   41.2620 C.3   158  LEU158      0.1561
     86  C         25.8400    5.8870   42.3330 C.2   158  LEU158      0.2260
     87  O         24.9680    6.5540   42.8920 O.2   158  LEU158     -0.2867
     88  CB        25.1490    5.6210   39.9730 C.3   158  LEU158      0.0270
     89  CG        25.4490    4.9740   38.6290 C.3   158  LEU158      0.0019
     90  CD1       25.4420    6.0580   37.5600 C.3   158  LEU158      0.0001
     91  CD2       26.8010    4.3060   38.6520 C.3   158  LEU158      0.0001
     92  N         34.7050    6.1510   37.4890 N.3   184  ASN184     -0.1240
     93  CA        35.1390    6.1000   36.1010 C.3   184  ASN184      0.1653
     94  C         35.5340    7.5170   35.6840 C.2   184  ASN184      0.2266
     95  O         35.5210    8.4460   36.5000 O.2   184  ASN184     -0.2867
     96  CB        34.0170    5.5800   35.1850 C.3   184  ASN184      0.1155
     97  CG        32.6920    6.3140   35.3820 C.2   184  ASN184      0.2627
     98  OD1       32.6640    7.4910   35.7330 O.2   184  ASN184     -0.2716
     99  ND2       31.5900    5.6180   35.1370 N.am  184  ASN184     -0.0877
    100  N         33.9240    9.5890   34.1460 N.3   186  TRP186     -0.1241
    101  CA        32.7750   10.4680   34.3140 C.3   186  TRP186      0.1605
    102  C         32.4420   10.8610   35.7460 C.2   186  TRP186      0.2264
    103  O         31.4780   11.5870   35.9850 O.2   186  TRP186     -0.2867
    104  CB        31.5580    9.8310   33.6420 C.3   186  TRP186      0.0550
    105  CG        31.8230    9.4890   32.2190 C.ar  186  TRP186      0.0003
    106  CD1       32.5200    8.4110   31.7450 C.ar  186  TRP186      0.0946
    107  CD2       31.4680   10.2730   31.0780 C.ar  186  TRP186      0.0152
    108  NE1       32.6220    8.4820   30.3790 N.ar  186  TRP186     -0.2442
    109  CE2       31.9850    9.6130   29.9420 C.ar  186  TRP186      0.0810
    110  CE3       30.7610   11.4730   30.9050 C.ar  186  TRP186      0.0012
    111  CZ2       31.8200   10.1120   28.6450 C.ar  186  TRP186      0.0191
    112  CZ3       30.5940   11.9730   29.6130 C.ar  186  TRP186      0.0001
    113  CH2       31.1240   11.2890   28.4980 C.ar  186  TRP186      0.0015
    114  N         31.7010    8.6650   38.3650 N.3   188  SER188     -0.1217
    115  CA        30.8040    7.7960   39.1240 C.3   188  SER188      0.1889
    116  C         31.1390    6.3130   39.0460 C.2   188  SER188      0.2288
    117  O         32.0320    5.8910   38.3150 O.2   188  SER188     -0.2866
    118  CB        29.3610    7.9960   38.6610 C.3   188  SER188      0.2089
    119  OG        29.1940    7.5530   37.3290 O.3   188  SER188     -0.2183
    120  N         21.0170   15.9780   35.5260 N.3   242  TRP242     -0.1227
    121  CA        21.9760   15.2710   34.6730 C.3   242  TRP242      0.1737
    122  C         23.3850   15.2910   35.2480 C.2   242  TRP242      0.2595
    123  O         23.9550   16.3570   35.4620 O.2   242  TRP242     -0.2718
    124  CB        22.0110   15.8800   33.2720 C.3   242  TRP242      0.0564
    125  CG        22.7460   15.0270   32.2880 C.ar  242  TRP242      0.0003
    126  CD1       23.5910   15.4450   31.2950 C.ar  242  TRP242      0.0946
    127  CD2       22.6880   13.6000   32.1930 C.ar  242  TRP242      0.0152
    128  NE1       24.0610   14.3610   30.5890 N.ar  242  TRP242     -0.2442
    129  CE2       23.5230   13.2170   31.1210 C.ar  242  TRP242      0.0810
    130  CE3       22.0090   12.6050   32.9120 C.ar  242  TRP242      0.0012
    131  CZ2       23.6970   11.8800   30.7510 C.ar  242  TRP242      0.0191
    132  CZ3       22.1810   11.2810   32.5440 C.ar  242  TRP242      0.0001
    133  CH2       23.0200   10.9300   31.4720 C.ar  242  TRP242      0.0015
    134  N         23.9590   14.1130   35.4650 N.am  243  PHE243     -0.1962
    135  CA        25.2950   14.0100   36.0510 C.3   243  PHE243      0.1771
    136  C         26.4790   14.2560   35.1180 C.2   243  PHE243      0.2619
    137  O         27.6050   14.4540   35.5850 O.2   243  PHE243     -0.2715
    138  CB        25.4770   12.6390   36.6830 C.3   243  PHE243      0.0574
    139  CG        24.1960   11.9210   36.9430 C.ar  243  PHE243     -0.0200
    140  CD1       23.8620   10.7850   36.1990 C.ar  243  PHE243     -0.0042
    141  CD2       23.3270   12.3680   37.9290 C.ar  243  PHE243     -0.0042
    142  CE1       22.6800   10.1040   36.4350 C.ar  243  PHE243     -0.0003
    143  CE2       22.1430   11.6980   38.1760 C.ar  243  PHE243     -0.0003
    144  CZ        21.8130   10.5600   37.4290 C.ar  243  PHE243     -0.0000
    145  N         26.2300   14.2360   33.8110 N.am  244  TYR244     -0.1974
    146  CA        27.2860   14.4350   32.8380 C.3   244  TYR244      0.1639
    147  C         27.0710   15.6750   31.9560 C.2   244  TYR244      0.2290
    148  O         27.4640   15.7000   30.7900 O.2   244  TYR244     -0.2864
    149  CB        27.4080   13.1660   31.9950 C.3   244  TYR244      0.0560
    150  CG        27.3660   11.9130   32.8450 C.ar  244  TYR244     -0.0198
    151  CD1       26.3030   11.0170   32.7500 C.ar  244  TYR244     -0.0009
    152  CD2       28.3580   11.6600   33.8000 C.ar  244  TYR244     -0.0009
    153  CE1       26.2180    9.9050   33.5870 C.ar  244  TYR244      0.0417
    154  CE2       28.2890   10.5490   34.6420 C.ar  244  TYR244      0.0417
    155  CZ        27.2150    9.6770   34.5330 C.ar  244  TYR244      0.1957
    156  OH        27.1360    8.5850   35.3740 O.3   244  TYR244     -0.2866
@<TRIPOS>BOND
     1    60    59    2
     2    59    58    1
     3    49    48    2
     4    58    57    1
     5    58    61    1
     6    48    57   am
     7    48    47    1
     8    47    46    1
     9    47    50    1
    10    67    66    2
    11    61    62    1
    12    61    63    1
    13     1     2    1
    14    66    65    1
    15    50    51    1
    16    51    52    1
    17     2     5    1
    18     2     3    1
    19     5     6    1
    20    64    65    1
    21     4     3    2
    22    65    68    1
    23     3    10   am
    24    71    73   ar
    25    71    69   ar
    26    73    74   ar
    27    52    53    1
    28     6     7    1
    29    68    69    1
    30    69    70   ar
    31    74    75    1
    32    74    72   ar
    33    18    16   ar
    34    18    19   ar
    35    10    11    1
    36    53    54    2
    37    16    15   ar
    38    70    72   ar
    39     7     9   ar
    40     7     8   ar
    41    11    12    1
    42    11    14    1
    43    31    29   am
    44    19    21   ar
    45    19    17   ar
    46    54    55    1
    47    54    56    1
    48    24    25    1
    49    21    23   ar
    50    15    14    1
    51    15    17   ar
    52    12    13    2
    53    17    20   ar
    54    29    28    1
    55    29    30    2
    56    28    25    1
    57    25    26    1
    58    23    22   ar
    59    26    27    2
    60   113   111   ar
    61   113   112   ar
    62    20    22   ar
    63   111   109   ar
    64   112   110   ar
    65   109   108   ar
    66   109   107   ar
    67   108   106   ar
    68   128   129   ar
    69   128   126   ar
    70   131   129   ar
    71   131   133   ar
    72   148   147    2
    73   110   107   ar
    74   107   105   ar
    75   129   127   ar
    76   126   125   ar
    77   133   132   ar
    78    38    40   ar
    79    38    37   ar
    80   106   105   ar
    81    40    41   ar
    82   147   146    1
    83   149   146    1
    84   149   150    1
    85   127   125   ar
    86   127   130   ar
    87   105   104    1
    88   125   124    1
    89    36    37    1
    90    36    33    1
    91    37    39   ar
    92    32    33    1
    93   132   130   ar
    94   151   150   ar
    95   151   153   ar
    96   146   145    1
    97   150   152   ar
    98    41    39   ar
    99    41    43   ar
   100    33    34    1
   101    34    35    2
   102   124   121    1
   103    39    42   ar
   104   153   155   ar
   105   104   101    1
   106    43    45   ar
   107   152   154   ar
   108   145   136   am
   109   100   101    1
   110   101   102    1
   111   155   154   ar
   112   155   156    1
   113    42    44   ar
   114   121   122    1
   115   121   120    1
   116    45    44   ar
   117   136   137    2
   118   136   135    1
   119    99    97   am
   120    96    97    1
   121    96    93    1
   122   122   123    2
   123   122   134   am
   124    97    98    2
   125   134   135    1
   126    94    93    1
   127    94    95    2
   128   102   103    2
   129   135   138    1
   130    93    92    1
   131   140   142   ar
   132   140   139   ar
   133    82    80    1
   134   142   144   ar
   135   138   139    1
   136   139   141   ar
   137    79    78    2
   138    83    81    1
   139   119   118    1
   140   144   143   ar
   141    90    89    1
   142    80    81    1
   143    80    77    1
   144   141   143   ar
   145    78    77    1
   146    77    76    1
   147   117   116    2
   148   114   115    1
   149    89    91    1
   150    89    88    1
   151   118   115    1
   152   116   115    1
   153    88    85    1
   154    85    84    1
   155    85    86    1
   156    86    87    2
