@<TRIPOS>MOLECULE
tmp/1k7wD00.pdb
 142 132 0 0 0
SMALL
GASTEIGER

@<TRIPOS>ATOM
      1  N         18.7890  -14.2730   29.5420 N.3    12  SER12      -0.1217
      2  CA        17.8560  -13.2080   29.1580 C.3    12  SER12       0.1889
      3  C         16.3960  -13.6640   29.1560 C.2    12  SER12       0.2288
      4  O         15.4870  -12.8520   28.9370 O.2    12  SER12      -0.2866
      5  CB        18.2330  -12.6580   27.7760 C.3    12  SER12       0.2089
      6  OG        18.2940  -13.6920   26.7930 O.3    12  SER12      -0.2183
      7  N         13.2380  -11.8110   27.7530 N.3    16  ASP16      -0.1239
      8  CA        13.0480  -12.0990   26.3450 C.3    16  ASP16       0.1674
      9  C         11.9160  -13.1040   26.0540 C.2    16  ASP16       0.2266
     10  O         11.6020  -13.3860   24.8980 O.2    16  ASP16      -0.2867
     11  CB        14.3880  -12.4820   25.6830 C.3    16  ASP16       0.1410
     12  CG        14.7850  -13.9290   25.9020 C.2    16  ASP16       0.3668
     13  OD1       15.8600  -14.3050   25.3850 O.co2  16  ASP16      -0.2456
     14  OD2       14.0430  -14.6750   26.5720 O.co2  16  ASP16      -0.2456
     15  N         17.3980  -18.5550   27.3770 N.3    72  ASP72      -0.1239
     16  CA        16.7060  -17.5370   26.5950 C.3    72  ASP72       0.1674
     17  C         15.4670  -18.1400   25.9490 C.2    72  ASP72       0.2266
     18  O         15.2540  -19.3510   26.0280 O.2    72  ASP72      -0.2867
     19  CB        17.6250  -16.9490   25.5290 C.3    72  ASP72       0.1410
     20  CG        18.1720  -17.9980   24.5860 C.2    72  ASP72       0.3668
     21  OD1       17.3890  -18.8860   24.1710 O.co2  72  ASP72      -0.2456
     22  OD2       19.3760  -17.9220   24.2520 O.co2  72  ASP72      -0.2456
     23  N         14.7520  -18.5460   22.7830 N.3    74  HIS74      -0.1241
     24  CA        15.0920  -19.4060   21.6580 C.3    74  HIS74       0.1621
     25  C         15.3280  -20.8290   22.1510 C.2    74  HIS74       0.2264
     26  O         14.8290  -21.7940   21.5640 O.2    74  HIS74      -0.2867
     27  CB        16.3480  -18.8720   20.9780 C.3    74  HIS74       0.0745
     28  CG        16.3410  -17.3850   20.8260 C.ar   74  HIS74       0.0817
     29  ND1       17.2840  -16.5680   21.4170 N.ar   74  HIS74      -0.2268
     30  CD2       15.4480  -16.5590   20.2290 C.ar   74  HIS74       0.1154
     31  CE1       16.9670  -15.3030   21.1960 C.ar   74  HIS74       0.1986
     32  NE2       15.8570  -15.2700   20.4790 N.ar   74  HIS74      -0.2212
     33  N         21.1590  -18.9050   13.3480 N.3    97  SER97      -0.1202
     34  CA        21.9270  -18.4880   14.5180 C.3    97  SER97       0.2020
     35  C         21.0130  -17.7010   15.4350 C.2    97  SER97       0.2619
     36  O         20.0000  -17.1700   14.9960 O.2    97  SER97      -0.2717
     37  CB        23.1000  -17.5980   14.1170 C.3    97  SER97       0.2103
     38  OG        23.6720  -16.9790   15.2670 O.3    97  SER97      -0.2182
     39  N         21.3640  -17.6290   16.7130 N.am   98  ARG98      -0.1965
     40  CA        20.5630  -16.8610   17.6520 C.3    98  ARG98       0.1729
     41  C         20.7800  -15.3930   17.2780 C.2    98  ARG98       0.2616
     42  O         19.9560  -14.5350   17.5930 O.2    98  ARG98      -0.2715
     43  CB        21.0280  -17.1200   19.0880 C.3    98  ARG98       0.0348
     44  CG        20.7590  -18.5300   19.5600 C.3    98  ARG98       0.0492
     45  CD        21.1650  -18.7120   21.0070 C.3    98  ARG98       0.2205
     46  NE        22.6120  -18.5970   21.2070 N.pl3  98  ARG98      -0.0865
     47  CZ        23.2220  -18.8630   22.3600 C.cat  98  ARG98       0.5346
     48  NH1       24.5370  -18.7420   22.4660 N.pl3  98  ARG98       0.1354
     49  NH2       22.5070  -19.2550   23.4100 N.pl3  98  ARG98       0.1354
     50  N         21.8830  -15.1410   16.5710 N.am   99  ASN99      -0.1972
     51  CA        22.2720  -13.8020   16.1350 C.3    99  ASN99       0.1688
     52  C         21.2890  -13.1890   15.1430 C.2    99  ASN99       0.2292
     53  O         20.9400  -12.0200   15.2680 O.2    99  ASN99      -0.2864
     54  CB        23.6800  -13.8210   15.5170 C.3    99  ASN99       0.1181
     55  CG        24.7810  -14.0490   16.5560 C.2    99  ASN99       0.2629
     56  OD1       24.5010  -14.4120   17.6980 O.2    99  ASN99      -0.2716
     57  ND2       26.0440  -13.8470   16.1520 N.am   99  ASN99      -0.0877
     58  N         17.3900  -13.4320   16.8980 N.3   102  VAL102     -0.1245
     59  CA        16.9460  -12.4920   17.9340 C.3   102  VAL102      0.1561
     60  C         16.5500  -11.1370   17.3680 C.2   102  VAL102      0.2260
     61  O         15.5840  -10.5150   17.8290 O.2   102  VAL102     -0.2867
     62  CB        18.0250  -12.3170   19.0600 C.3   102  VAL102      0.0252
     63  CG1       19.2110  -11.5290   18.5580 C.3   102  VAL102      0.0019
     64  CG2       17.3880  -11.6440   20.2930 C.3   102  VAL102      0.0019
     65  N         25.2530  -16.2570   11.6880 N.3   188  ALA188     -0.1231
     66  CA        26.0640  -15.7550   12.8090 C.3   188  ALA188      0.1694
     67  C         26.6830  -14.3940   12.5200 C.2   188  ALA188      0.2591
     68  O         26.8050  -13.5550   13.4200 O.2   188  ALA188     -0.2718
     69  CB        27.1620  -16.7590   13.1540 C.3   188  ALA188      0.0304
     70  N         27.1000  -14.1890   11.2710 N.am  189  LEU189     -0.1980
     71  CA        27.6740  -12.9160   10.8570 C.3   189  LEU189      0.1596
     72  C         28.0590  -12.8890    9.3830 C.2   189  LEU189      0.2287
     73  O         28.2220  -11.8130    8.8120 O.2   189  LEU189     -0.2864
     74  CB        28.9080  -12.5590   11.6940 C.3   189  LEU189      0.0297
     75  CG        30.2270  -13.2670   11.3750 C.3   189  LEU189      0.0022
     76  CD1       31.3760  -12.6270   12.1450 C.3   189  LEU189      0.0001
     77  CD2       30.0980  -14.7340   11.7350 C.3   189  LEU189      0.0001
     78  N         21.9070   -1.8660   15.8810 N.3   221  ARG221     -0.1245
     79  CA        20.7420   -1.7040   16.7270 C.3   221  ARG221      0.1563
     80  C         20.1720   -0.3000   16.4590 C.2   221  ARG221      0.2260
     81  O         19.5710    0.3510   17.3330 O.2   221  ARG221     -0.2867
     82  CB        21.1270   -1.9260   18.1930 C.3   221  ARG221      0.0307
     83  CG        21.4350   -3.4170   18.5050 C.3   221  ARG221      0.0489
     84  CD        20.2220   -4.3350   18.2270 C.3   221  ARG221      0.2205
     85  NE        20.4450   -5.7170   18.6720 N.pl3 221  ARG221     -0.0865
     86  CZ        21.2480   -6.6010   18.0680 C.cat 221  ARG221      0.5346
     87  NH1       21.9220   -6.2750   16.9710 N.pl3 221  ARG221      0.1354
     88  NH2       21.3910   -7.8230   18.5730 N.pl3 221  ARG221      0.1354
     89  N         31.4630   -8.0610   15.2400 N.3   305  THR305     -0.1203
     90  CA        30.0840   -7.8620   14.8130 C.3   305  THR305      0.1994
     91  C         29.2030   -8.0150   16.0480 C.2   305  THR305      0.2617
     92  O         28.9570   -7.0370   16.7330 O.2   305  THR305     -0.2717
     93  CB        29.6560   -8.9160   13.7760 C.3   305  THR305      0.1784
     94  OG1       29.7750  -10.2280   14.3460 O.3   305  THR305     -0.2211
     95  CG2       30.5310   -8.8200   12.5410 C.3   305  THR305      0.0376
     96  N         28.7340   -9.2280   16.3460 N.am  306  TYR306     -0.1975
     97  CA        27.9000   -9.4130   17.5500 C.3   306  TYR306      0.1639
     98  C         28.7750   -9.4480   18.8010 C.2   306  TYR306      0.2290
     99  O         29.9100   -9.9490   18.7660 O.2   306  TYR306     -0.2864
    100  CB        27.0830  -10.7250   17.4940 C.3   306  TYR306      0.0560
    101  CG        26.2620  -11.0030   18.7580 C.ar  306  TYR306     -0.0198
    102  CD1       24.9640  -10.5060   18.9030 C.ar  306  TYR306     -0.0009
    103  CD2       26.8050  -11.7400   19.8170 C.ar  306  TYR306     -0.0009
    104  CE1       24.2150  -10.7320   20.0840 C.ar  306  TYR306      0.0417
    105  CE2       26.0770  -11.9710   20.9890 C.ar  306  TYR306      0.0417
    106  CZ        24.7840  -11.4640   21.1120 C.ar  306  TYR306      0.1957
    107  OH        24.0680  -11.6920   22.2570 O.3   306  TYR306     -0.2866
    108  N         28.0360   -9.6510   23.3290 N.3   308  LYS308     -0.1245
    109  CA        26.9430   -9.8240   24.2870 C.3   308  LYS308      0.1561
    110  C         26.3480   -8.4980   24.7880 C.2   308  LYS308      0.2260
    111  O         25.2320   -8.4590   25.3450 O.2   308  LYS308     -0.2867
    112  CB        27.4020  -10.6930   25.4590 C.3   308  LYS308      0.0271
    113  CG        26.2440  -11.3500   26.1920 C.3   308  LYS308      0.0035
    114  CD        25.3900  -12.1050   25.1810 C.3   308  LYS308      0.0206
    115  CE        24.7220  -13.3170   25.7580 C.3   308  LYS308      0.1093
    116  NZ        25.7070  -14.2940   26.2500 N.3   308  LYS308     -0.1314
    117  N         24.9970   -6.2060   23.2120 N.3   310  LEU310     -0.1231
    118  CA        23.7360   -5.9640   22.5290 C.3   310  LEU310      0.1693
    119  C         22.4820   -6.4880   23.2100 C.2   310  LEU310      0.2591
    120  O         21.3780   -6.0800   22.8750 O.2   310  LEU310     -0.2718
    121  CB        23.8220   -6.5290   21.1160 C.3   310  LEU310      0.0284
    122  CG        25.0620   -6.0310   20.3500 C.3   310  LEU310      0.0019
    123  CD1       25.2320   -6.8120   19.0520 C.3   310  LEU310      0.0001
    124  CD2       24.9260   -4.5490   20.0720 C.3   310  LEU310      0.0001
    125  N         22.6470   -7.3970   24.1540 N.am  311  GLN311     -0.1979
    126  CA        21.5030   -7.9720   24.8350 C.3   311  GLN311      0.1601
    127  C         20.7130   -6.9260   25.6430 C.2   311  GLN311      0.2287
    128  O         19.5440   -7.1390   26.0090 O.2   311  GLN311     -0.2864
    129  CB        21.9820   -9.1250   25.7220 C.3   311  GLN311      0.0394
    130  CG        20.8900   -9.7620   26.5790 C.3   311  GLN311      0.0908
    131  CD        21.3390  -11.0970   27.1150 C.2   311  GLN311      0.2608
    132  OE1       21.2840  -12.1030   26.4110 O.2   311  GLN311     -0.2717
    133  NE2       21.8250  -11.1110   28.3500 N.am  311  GLN311     -0.0878
    134  N         16.6450   -5.2550   24.4230 N.3   314  LYS314     -0.1245
    135  CA        15.3000   -5.7040   24.7040 C.3   314  LYS314      0.1561
    136  C         14.5630   -5.0550   25.8680 C.2   314  LYS314      0.2260
    137  O         13.4250   -4.6200   25.7070 O.2   314  LYS314     -0.2867
    138  CB        15.3140   -7.2340   24.8140 C.3   314  LYS314      0.0271
    139  CG        15.4430   -7.8650   23.4240 C.3   314  LYS314      0.0035
    140  CD        15.9050   -9.3010   23.4590 C.3   314  LYS314      0.0206
    141  CE        17.4000   -9.3660   23.6110 C.3   314  LYS314      0.1093
    142  NZ        18.1290   -8.9060   22.3680 N.3   314  LYS314     -0.1314
@<TRIPOS>BOND
     1    73    72    2
     2    72    71    1
     3    71    70    1
     4    71    74    1
     5    70    67   am
     6    75    74    1
     7    75    77    1
     8    75    76    1
     9    65    66    1
    10    67    66    1
    11    67    68    2
    12    95    93    1
    13    66    69    1
    14    33    34    1
    15    93    94    1
    16    93    90    1
    17    37    34    1
    18    37    38    1
    19    34    35    1
    20    90    89    1
    21    90    91    1
    22    36    35    2
    23    52    53    2
    24    52    51    1
    25    35    39   am
    26    54    51    1
    27    54    55    1
    28    78    79    1
    29    91    96   am
    30    91    92    2
    31    51    50    1
    32    57    55   am
    33    96    97    1
    34    80    79    1
    35    80    81    2
    36    55    56    2
    37    50    41   am
    38    39    40    1
    39    79    82    1
    40    58    59    1
    41    87    86    1
    42    41    42    2
    43    41    40    1
    44    60    61    2
    45    60    59    1
    46   100    97    1
    47   100   101    1
    48    97    98    1
    49    40    43    1
    50    59    62    1
    51    86    88    1
    52    86    85    2
    53    82    83    1
    54    84    83    1
    55    84    85    1
    56    63    62    1
    57   101   102   ar
    58   101   103   ar
    59    99    98    2
    60   102   104   ar
    61   123   122    1
    62    62    64    1
    63    43    44    1
    64    44    45    1
    65   103   105   ar
    66   124   122    1
    67   104   106   ar
    68    30    32   ar
    69    30    28   ar
    70   122   121    1
    71    32    31   ar
    72    28    27    1
    73    28    29   ar
    74    27    24    1
    75   105   106   ar
    76    45    46    1
    77   106   107    1
    78   121   118    1
    79    31    29   ar
    80    46    47    2
    81    26    25    2
    82    24    25    1
    83    24    23    1
    84    47    48    1
    85    47    49    1
    86   142   141    1
    87   118   119    1
    88   118   117    1
    89   120   119    2
    90   119   125   am
    91   108   109    1
    92   139   140    1
    93   139   138    1
    94   140   141    1
    95   125   126    1
    96    21    20   ar
    97    22    20   ar
    98   109   110    1
    99   109   112    1
   100   134   135    1
   101    20    19    1
   102   135   138    1
   103   135   136    1
   104   110   111    2
   105   126   127    1
   106   126   129    1
   107    10     9    2
   108   114   115    1
   109   114   113    1
   110    13    12   ar
   111   112   113    1
   112    19    16    1
   113   127   128    2
   114    11    12    1
   115    11     8    1
   116   137   136    2
   117   129   130    1
   118   115   116    1
   119    12    14   ar
   120    17    18    2
   121    17    16    1
   122     9     8    1
   123     8     7    1
   124   132   131    2
   125   130   131    1
   126    16    15    1
   127     6     5    1
   128   131   133   am
   129     5     2    1
   130     4     3    2
   131     3     2    1
   132     2     1    1
