@<TRIPOS>MOLECULE
tmp/1k8gD00.pdb
 200 188 0 0 0
SMALL
GASTEIGER

@<TRIPOS>ATOM
      1  N        -22.3260   78.9810    7.3230 N.3    27  THR27      -0.1218
      2  CA       -23.3180   77.9260    7.4500 C.3    27  THR27       0.1862
      3  C        -24.6410   78.6710    7.3060 C.2    27  THR27       0.2287
      4  O        -24.6990   79.8920    7.4740 O.2    27  THR27      -0.2866
      5  CB       -23.3350   77.3230    8.8470 C.3    27  THR27       0.1770
      6  OG1      -23.7080   78.3430    9.7810 O.3    27  THR27      -0.2211
      7  CG2      -21.9780   76.7640    9.2070 C.3    27  THR27       0.0375
      8  N        -29.1230   78.0330   11.4680 N.3    30  TYR30      -0.1241
      9  CA       -29.7630   76.7720   11.7930 C.3    30  TYR30       0.1605
     10  C        -30.0710   76.5950   13.2690 C.2    30  TYR30       0.2264
     11  O        -29.4270   77.1940   14.1320 O.2    30  TYR30      -0.2867
     12  CB       -28.8690   75.6200   11.3360 C.3    30  TYR30       0.0534
     13  CG       -27.5850   75.4890   12.1370 C.ar   30  TYR30      -0.0201
     14  CD1      -27.5620   74.7750   13.3340 C.ar   30  TYR30      -0.0009
     15  CD2      -26.3930   76.0870   11.6970 C.ar   30  TYR30      -0.0009
     16  CE1      -26.3890   74.6520   14.0770 C.ar   30  TYR30       0.0417
     17  CE2      -25.2180   75.9730   12.4320 C.ar   30  TYR30       0.0417
     18  CZ       -25.2200   75.2550   13.6220 C.ar   30  TYR30       0.1957
     19  OH       -24.0610   75.1470   14.3660 O.3    30  TYR30      -0.2866
     20  N        -30.5540   74.6860   17.0190 N.3    32  THR32      -0.1218
     21  CA       -29.7120   73.9300   17.9010 C.3    32  THR32       0.1862
     22  C        -30.6360   73.2410   18.8560 C.2    32  THR32       0.2287
     23  O        -30.7480   72.0150   18.8580 O.2    32  THR32      -0.2866
     24  CB       -28.7500   74.8680   18.6440 C.3    32  THR32       0.1770
     25  OG1      -29.4900   75.8360   19.3890 O.3    32  THR32      -0.2211
     26  CG2      -27.8300   75.5820   17.6540 C.3    32  THR32       0.0375
     27  N        -27.8340   79.4370   15.4860 N.3    38  ILE38      -0.1245
     28  CA       -26.4260   79.7400   15.3720 C.3    38  ILE38       0.1561
     29  C        -26.1750   79.9780   13.9060 C.2    38  ILE38       0.2260
     30  O        -26.9900   79.6240   13.0590 O.2    38  ILE38      -0.2867
     31  CB       -25.5590   78.5460   15.8480 C.3    38  ILE38       0.0252
     32  CG1      -25.7100   78.3670   17.3550 C.3    38  ILE38       0.0019
     33  CG2      -24.0970   78.7650   15.4920 C.3    38  ILE38       0.0019
     34  CD1      -24.9230   77.1990   17.9230 C.3    38  ILE38       0.0001
     35  N        -22.3720   80.2110   11.7870 N.3    40  SER40      -0.1217
     36  CA       -20.9320   80.3620   11.8230 C.3    40  SER40       0.1889
     37  C        -20.3870   80.8560   10.5000 C.2    40  SER40       0.2288
     38  O        -20.7270   80.3340    9.4340 O.2    40  SER40      -0.2866
     39  CB       -20.2590   79.0400   12.2000 C.3    40  SER40       0.2089
     40  OG       -18.8470   79.1730   12.2100 O.3    40  SER40      -0.2183
     41  N        -16.7880   82.6790    8.3270 N.3    42  LYS42      -0.1245
     42  CA       -15.3580   82.8480    8.2110 C.3    42  LYS42       0.1561
     43  C        -15.2010   84.2230    7.5680 C.2    42  LYS42       0.2260
     44  O        -15.5650   84.4380    6.4260 O.2    42  LYS42      -0.2867
     45  CB       -14.7030   81.7530    7.3420 C.3    42  LYS42       0.0271
     46  CG       -14.6260   80.3650    7.9690 C.3    42  LYS42       0.0035
     47  CD       -13.8780   79.3910    7.0760 C.3    42  LYS42       0.0206
     48  CE       -13.8300   77.9800    7.6620 C.3    42  LYS42       0.1093
     49  NZ       -15.1360   77.2860    7.5180 N.3    42  LYS42      -0.1314
     50  N        -13.0720   83.8050   12.6080 N.3    58  THR58      -0.1218
     51  CA       -14.3350   83.1150   12.7670 C.3    58  THR58       0.1862
     52  C        -15.3340   84.0340   13.4580 C.2    58  THR58       0.2287
     53  O        -14.9660   84.7990   14.3410 O.2    58  THR58      -0.2866
     54  CB       -14.1460   81.8300   13.6100 C.3    58  THR58       0.1770
     55  OG1      -13.7020   80.7710   12.7580 O.3    58  THR58      -0.2211
     56  CG2      -15.4380   81.4220   14.2730 C.3    58  THR58       0.0375
     57  N        -19.2140   83.7230   15.1900 N.3    60  VAL60      -0.1245
     58  CA       -20.3810   82.9340   15.5900 C.3    60  VAL60       0.1561
     59  C        -21.5400   83.8060   16.0650 C.2    60  VAL60       0.2260
     60  O        -21.4620   84.4250   17.1220 O.2    60  VAL60      -0.2867
     61  CB       -20.0630   81.9810   16.7370 C.3    60  VAL60       0.0252
     62  CG1      -21.2550   81.0800   16.9780 C.3    60  VAL60       0.0019
     63  CG2      -18.8360   81.1620   16.4130 C.3    60  VAL60       0.0019
     64  N        -25.2860   84.1630   17.5120 N.3    62  TYR62      -0.1241
     65  CA       -26.3220   83.4560   18.2550 C.3    62  TYR62       0.1605
     66  C        -27.6480   84.2240   18.2130 C.2    62  TYR62       0.2264
     67  O        -27.6620   85.4270   17.9710 O.2    62  TYR62      -0.2867
     68  CB       -25.8810   83.2730   19.7040 C.3    62  TYR62       0.0534
     69  CG       -24.6180   82.4580   19.8570 C.ar   62  TYR62      -0.0201
     70  CD1      -23.3610   83.0610   19.7890 C.ar   62  TYR62      -0.0009
     71  CD2      -24.6800   81.0830   20.0930 C.ar   62  TYR62      -0.0009
     72  CE1      -22.2010   82.3200   19.9630 C.ar   62  TYR62       0.0417
     73  CE2      -23.5240   80.3300   20.2650 C.ar   62  TYR62       0.0417
     74  CZ       -22.2910   80.9560   20.2040 C.ar   62  TYR62       0.1957
     75  OH       -21.1530   80.2170   20.4220 O.3    62  TYR62      -0.2866
     76  N        -12.9070   86.4940   21.4090 N.3    87  ARG87      -0.1245
     77  CA       -12.3140   85.4260   22.1750 C.3    87  ARG87       0.1563
     78  C        -11.4140   84.7100   21.1950 C.2    87  ARG87       0.2260
     79  O        -11.4920   84.9420   19.9910 O.2    87  ARG87      -0.2867
     80  CB       -13.3940   84.4670   22.7000 C.3    87  ARG87       0.0307
     81  CG       -12.8620   83.3100   23.5400 C.3    87  ARG87       0.0489
     82  CD       -13.9660   82.3440   23.9590 C.3    87  ARG87       0.2205
     83  NE       -13.4570   81.3570   24.9110 N.pl3  87  ARG87      -0.0865
     84  CZ       -14.1300   80.2850   25.3160 C.cat  87  ARG87       0.5346
     85  NH1      -15.3540   80.0490   24.8530 N.pl3  87  ARG87       0.1354
     86  NH2      -13.5730   79.4490   26.1840 N.pl3  87  ARG87       0.1354
     87  N        -10.6260   81.1330   19.7230 N.3    89  TYR89      -0.1241
     88  CA       -10.9820   79.7130   19.6690 C.3    89  TYR89       0.1605
     89  C         -9.9660   78.9020   18.8460 C.2    89  TYR89       0.2264
     90  O         -9.8290   79.0550   17.6300 O.2    89  TYR89      -0.2867
     91  CB       -12.3830   79.5150   19.1050 C.3    89  TYR89       0.0534
     92  CG       -12.8950   78.1080   19.3120 C.ar   89  TYR89      -0.0201
     93  CD1      -12.7860   77.4750   20.5510 C.ar   89  TYR89      -0.0009
     94  CD2      -13.4620   77.4000   18.2580 C.ar   89  TYR89      -0.0009
     95  CE1      -13.2250   76.1630   20.7260 C.ar   89  TYR89       0.0417
     96  CE2      -13.9160   76.0990   18.4190 C.ar   89  TYR89       0.0417
     97  CZ       -13.7900   75.4830   19.6550 C.ar   89  TYR89       0.1957
     98  OH       -14.2370   74.1950   19.8160 O.3    89  TYR89      -0.2866
     99  N        -11.8850   84.3260   17.2370 N.3    94  GLN94      -0.1245
    100  CA       -13.3100   84.0460   17.1280 C.3    94  GLN94       0.1566
    101  C        -14.2050   85.1430   17.6710 C.2    94  GLN94       0.2260
    102  O        -14.3260   85.3140   18.8800 O.2    94  GLN94      -0.2867
    103  CB       -13.6330   82.7590   17.8710 C.3    94  GLN94       0.0367
    104  CG       -15.0540   82.2700   17.6290 C.3    94  GLN94       0.0905
    105  CD       -15.4580   81.1860   18.6140 C.2    94  GLN94       0.2608
    106  OE1      -15.8760   81.5210   19.7040 O.2    94  GLN94      -0.2717
    107  NE2      -15.3600   79.9120   18.2380 N.am   94  GLN94      -0.0878
    108  N        -17.6750   86.6270   18.6650 N.3    96  ASN96      -0.1240
    109  CA       -18.9970   86.1620   19.0720 C.3    96  ASN96       0.1653
    110  C        -19.9580   87.3370   19.1410 C.2    96  ASN96       0.2266
    111  O        -19.5690   88.4380   19.5200 O.2    96  ASN96      -0.2867
    112  CB       -18.9300   85.4820   20.4350 C.3    96  ASN96       0.1155
    113  CG       -18.2470   84.1350   20.3730 C.2    96  ASN96       0.2627
    114  OD1      -17.1740   83.9340   20.9480 O.2    96  ASN96      -0.2716
    115  ND2      -18.8650   83.1990   19.6570 N.am   96  ASN96      -0.0877
    116  N         -9.9060   73.8910    1.9660 N.3   169  MET169     -0.1245
    117  CA       -11.1740   74.2570    2.5940 C.3   169  MET169      0.1570
    118  C        -12.2990   73.4820    1.9290 C.2   169  MET169      0.2261
    119  O        -13.4770   73.6920    2.2160 O.2   169  MET169     -0.2867
    120  CB       -11.4150   75.7600    2.4700 C.3   169  MET169      0.0387
    121  CG       -10.1570   76.5770    2.7040 C.3   169  MET169      0.0595
    122  SD       -10.4560   78.1050    3.5510 S.3   169  MET169     -0.1393
    123  CE       -10.9490   79.1200    2.2130 C.3   169  MET169      0.0692
    124  N        -18.6100   64.5650    7.1260 N.3   182  ASP182     -0.1225
    125  CA       -18.8750   65.5980    6.1250 C.3   182  ASP182      0.1805
    126  C        -17.6640   66.4100    5.7140 C.2   182  ASP182      0.2598
    127  O        -16.7300   66.6200    6.4840 O.2   182  ASP182     -0.2718
    128  CB       -20.0330   66.5150    6.5670 C.3   182  ASP182      0.1424
    129  CG       -19.6080   67.6100    7.5310 C.2   182  ASP182      0.3668
    130  OD1      -18.6150   67.4320    8.2690 O.co2 182  ASP182     -0.2456
    131  OD2      -20.2970   68.6550    7.5680 O.co2 182  ASP182     -0.2456
    132  N        -17.7170   66.8620    4.4710 N.am  183  PHE183     -0.1962
    133  CA       -16.6810   67.6270    3.8430 C.3   183  PHE183      0.1771
    134  C        -17.2680   68.7950    3.0570 C.2   183  PHE183      0.2619
    135  O        -18.4920   68.9640    3.0360 O.2   183  PHE183     -0.2715
    136  CB       -15.8980   66.7090    2.9030 C.3   183  PHE183      0.0574
    137  CG       -16.7840   66.0160    1.8790 C.ar  183  PHE183     -0.0200
    138  CD1      -17.0300   66.6310    0.6610 C.ar  183  PHE183     -0.0042
    139  CD2      -17.3870   64.7780    2.1380 C.ar  183  PHE183     -0.0042
    140  CE1      -17.8620   66.0270   -0.3000 C.ar  183  PHE183     -0.0003
    141  CE2      -18.2250   64.1600    1.1860 C.ar  183  PHE183     -0.0003
    142  CZ       -18.4570   64.7870   -0.0320 C.ar  183  PHE183     -0.0000
    143  N        -16.4430   69.6240    2.4140 N.am  184  ASP184     -0.1971
    144  CA       -16.9580   70.7560    1.6330 C.3   184  ASP184      0.1709
    145  C        -16.6470   70.5660    0.1630 C.2   184  ASP184      0.2293
    146  O        -15.7280   69.8280   -0.1980 O.2   184  ASP184     -0.2864
    147  CB       -16.3860   72.0810    2.1230 C.3   184  ASP184      0.1436
    148  CG       -16.5830   72.2770    3.6120 C.2   184  ASP184      0.3671
    149  OD1      -17.7110   72.0950    4.1060 O.co2 184  ASP184     -0.2456
    150  OD2      -15.6020   72.6160    4.2980 O.co2 184  ASP184     -0.2456
    151  N        -19.8260   76.9300   -3.7340 N.3   231  ARG231     -0.1245
    152  CA       -19.0820   76.2390   -2.7070 C.3   231  ARG231      0.1563
    153  C        -20.1610   75.6720   -1.8050 C.2   231  ARG231      0.2260
    154  O        -21.0700   76.4090   -1.3930 O.2   231  ARG231     -0.2867
    155  CB       -18.2170   77.2100   -1.9000 C.3   231  ARG231      0.0307
    156  CG       -17.5980   76.5420   -0.6730 C.3   231  ARG231      0.0489
    157  CD       -17.2790   77.5520    0.3880 C.3   231  ARG231      0.2205
    158  NE       -17.3650   76.9820    1.7270 N.pl3 231  ARG231     -0.0865
    159  CZ       -16.3890   76.2910    2.3000 C.cat 231  ARG231      0.5346
    160  NH1      -15.2580   76.0910    1.6400 N.pl3 231  ARG231      0.1354
    161  NH2      -16.5370   75.8110    3.5260 N.pl3 231  ARG231      0.1354
    162  N        -21.1170   74.1890    1.6680 N.3   233  ARG233     -0.1231
    163  CA       -20.6110   74.1030    3.0360 C.3   233  ARG233      0.1694
    164  C        -21.2640   72.9240    3.7280 C.2   233  ARG233      0.2592
    165  O        -22.4280   73.0610    4.1340 O.2   233  ARG233     -0.2718
    166  CB       -20.9620   75.3970    3.7770 C.3   233  ARG233      0.0321
    167  CG       -20.7650   75.3250    5.2980 C.3   233  ARG233      0.0489
    168  CD       -19.3700   74.8110    5.7160 C.3   233  ARG233      0.2205
    169  NE       -19.2450   74.6820    7.1840 N.pl3 233  ARG233     -0.0865
    170  CZ       -18.9430   75.6830    8.0120 C.cat 233  ARG233      0.5346
    171  NH1      -18.7050   76.8890    7.5410 N.pl3 233  ARG233      0.1354
    172  NH2      -18.9560   75.5030    9.3220 N.pl3 233  ARG233      0.1354
    173  N        -20.5390   71.7990    3.8410 N.am  234  SER234     -0.1952
    174  CA       -20.9920   70.5690    4.4950 C.3   234  SER234      0.1924
    175  C        -21.9150   69.6300    3.7050 C.2   234  SER234      0.2314
    176  O        -23.1230   69.8080    3.6940 O.2   234  SER234     -0.2863
    177  CB       -21.6830   70.9770    5.7410 C.3   234  SER234      0.2116
    178  OG       -22.1190   69.8610    6.4630 O.3   234  SER234     -0.2180
    179  N        -29.4600   70.6270    7.4860 N.3   251  HIS251     -0.1226
    180  CA       -30.1140   71.9000    7.6930 C.3   251  HIS251      0.1752
    181  C        -29.1230   73.0400    7.7360 C.2   251  HIS251      0.2596
    182  O        -29.3870   74.0980    7.1590 O.2   251  HIS251     -0.2718
    183  CB       -31.0290   71.8980    8.9330 C.3   251  HIS251      0.0759
    184  CG       -30.3620   71.5230   10.2220 C.ar  251  HIS251      0.0818
    185  ND1      -29.6680   70.3460   10.3880 N.ar  251  HIS251     -0.2268
    186  CD2      -30.4140   72.1050   11.4450 C.ar  251  HIS251      0.1154
    187  CE1      -29.3260   70.2120   11.6620 C.ar  251  HIS251      0.1986
    188  NE2      -29.7690   71.2650   12.3240 N.ar  251  HIS251     -0.2212
    189  N        -27.9750   72.8140    8.3810 N.am  252  TYR252     -0.1976
    190  CA       -26.9460   73.8380    8.4690 C.3   252  TYR252      0.1639
    191  C        -26.1690   74.0060    7.1710 C.2   252  TYR252      0.2290
    192  O        -25.4880   75.0050    6.9970 O.2   252  TYR252     -0.2864
    193  CB       -25.9900   73.5630    9.6310 C.3   252  TYR252      0.0560
    194  CG       -25.4860   72.1530    9.7140 C.ar  252  TYR252     -0.0198
    195  CD1      -24.5390   71.6730    8.8100 C.ar  252  TYR252     -0.0009
    196  CD2      -25.9550   71.2930   10.7000 C.ar  252  TYR252     -0.0009
    197  CE1      -24.0680   70.3680    8.8850 C.ar  252  TYR252      0.0417
    198  CE2      -25.4960   69.9860   10.7840 C.ar  252  TYR252      0.0417
    199  CZ       -24.5540   69.5280    9.8700 C.ar  252  TYR252      0.1957
    200  OH       -24.1240   68.2210    9.9120 O.3   252  TYR252     -0.2866
@<TRIPOS>BOND
     1   151   152    1
     2   152   155    1
     3   152   153    1
     4   155   156    1
     5   153   154    2
     6   156   157    1
     7   140   142   ar
     8   140   138   ar
     9   146   145    2
    10   142   141   ar
    11   145   144    1
    12   157   158    1
    13   138   137   ar
    14   141   139   ar
    15   144   147    1
    16   144   143    1
    17   160   159    1
    18   162   163    1
    19   158   159    2
    20   137   139   ar
    21   137   136    1
    22   118   119    2
    23   118   117    1
    24   116   117    1
    25   147   148    1
    26   123   122    1
    27   159   161    1
    28   143   134   am
    29   120   117    1
    30   120   121    1
    31   121   122    1
    32   136   133    1
    33   135   134    2
    34   163   164    1
    35   163   166    1
    36   134   133    1
    37   148   149   ar
    38   148   150   ar
    39   176   175    2
    40   175   174    1
    41   164   173   am
    42   164   165    2
    43   166   167    1
    44   173   174    1
    45   133   132    1
    46   132   126   am
    47   174   177    1
    48   167   168    1
    49   126   125    1
    50   126   127    2
    51   168   169    1
    52   177   178    1
    53   125   128    1
    54   125   124    1
    55    44    43    2
    56   128   129    1
    57   192   191    2
    58    47    48    1
    59    47    46    1
    60   182   181    2
    61   191   190    1
    62   169   170    2
    63     3     2    1
    64     3     4    2
    65     1     2    1
    66    45    46    1
    67    45    42    1
    68     2     5    1
    69   179   180    1
    70    49    48    1
    71   129   131   ar
    72   129   130   ar
    73   171   170    1
    74    43    42    1
    75   180   181    1
    76   180   183    1
    77   181   189   am
    78   170   172    1
    79    42    41    1
    80   189   190    1
    81   190   193    1
    82   195   197   ar
    83   195   194   ar
    84     5     7    1
    85     5     6    1
    86   197   199   ar
    87   183   184    1
    88    38    37    2
    89   193   194    1
    90   194   196   ar
    91   199   200    1
    92   199   198   ar
    93   184   185   ar
    94   184   186   ar
    95   185   187   ar
    96    37    36    1
    97   196   198   ar
    98    12     9    1
    99    12    13    1
   100   186   188   ar
   101     8     9    1
   102   187   188   ar
   103    15    13   ar
   104    15    17   ar
   105    35    36    1
   106     9    10    1
   107    36    39    1
   108    13    14   ar
   109    39    40    1
   110    17    18   ar
   111    50    51    1
   112    55    54    1
   113    51    52    1
   114    51    54    1
   115    30    29    2
   116    10    11    2
   117    14    16   ar
   118    52    53    2
   119    54    56    1
   120    18    16   ar
   121    18    19    1
   122    29    28    1
   123    57    58    1
   124    28    27    1
   125    28    31    1
   126    33    31    1
   127    58    59    1
   128    58    61    1
   129    31    32    1
   130    59    60    2
   131    63    61    1
   132    61    62    1
   133    20    21    1
   134   100    99    1
   135   100   101    1
   136   100   103    1
   137    32    34    1
   138    64    65    1
   139   104   103    1
   140   104   105    1
   141    90    89    2
   142    26    24    1
   143   101   102    2
   144    21    24    1
   145    21    22    1
   146    67    66    2
   147    66    65    1
   148   107   105   am
   149    65    68    1
   150    94    96   ar
   151    94    92   ar
   152    96    97   ar
   153   105   106    2
   154    24    25    1
   155   108   109    1
   156    89    88    1
   157    22    23    2
   158   109   110    1
   159   109   112    1
   160    91    92    1
   161    91    88    1
   162   110   111    2
   163    92    93   ar
   164    97    98    1
   165    97    95   ar
   166   115   113   am
   167    88    87    1
   168    68    69    1
   169    70    69   ar
   170    70    72   ar
   171    69    71   ar
   172    72    74   ar
   173    79    78    2
   174    71    73   ar
   175    74    73   ar
   176    74    75    1
   177   113   112    1
   178   113   114    2
   179    93    95   ar
   180    78    77    1
   181    76    77    1
   182    77    80    1
   183    80    81    1
   184    81    82    1
   185    82    83    1
   186    85    84    1
   187    83    84    2
   188    84    86    1
