@<TRIPOS>MOLECULE
tmp/1k8qB04.pdb
 171 163 0 0 0
SMALL
GASTEIGER

@<TRIPOS>ATOM
      1  N         -1.9950   33.5230   23.7230 N.3    67  LEU67      -0.1231
      2  CA        -2.4630   33.4590   25.1080 C.3    67  LEU67       0.1693
      3  C         -1.4110   33.0630   26.1540 C.2    67  LEU67       0.2592
      4  O         -0.6770   32.0890   25.9850 O.2    67  LEU67      -0.2718
      5  CB        -3.6520   32.4960   25.1840 C.3    67  LEU67       0.0284
      6  CG        -4.2970   32.2190   26.5380 C.3    67  LEU67       0.0019
      7  CD1       -4.9630   33.4720   27.0620 C.3    67  LEU67       0.0001
      8  CD2       -5.3040   31.0860   26.3820 C.3    67  LEU67       0.0001
      9  N         -1.3730   33.8290   27.2420 N.am   68  LEU68      -0.1966
     10  CA        -0.4550   33.6220   28.3600 C.3    68  LEU68       0.1728
     11  C          1.0210   33.6300   27.9660 C.2    68  LEU68       0.2616
     12  O          1.8720   33.0970   28.6770 O.2    68  LEU68      -0.2715
     13  CB        -0.8100   32.3260   29.1020 C.3    68  LEU68       0.0311
     14  CG        -2.0720   32.3730   29.9810 C.3    68  LEU68       0.0022
     15  CD1       -2.3640   31.0010   30.5750 C.3    68  LEU68       0.0001
     16  CD2       -1.8800   33.3850   31.0890 C.3    68  LEU68       0.0001
     17  N          1.3220   34.2570   26.8360 N.am   69  ALA69      -0.1977
     18  CA         2.6940   34.3310   26.3580 C.3    69  ALA69       0.1597
     19  C          3.1130   35.7900   26.2080 C.2    69  ALA69       0.2287
     20  O          2.3770   36.6950   26.6020 O.2    69  ALA69      -0.2864
     21  CB         2.8240   33.5980   25.0170 C.3    69  ALA69       0.0319
     22  N          8.6270   35.0120   23.1460 N.3    73  ASN73      -0.1240
     23  CA         8.2740   33.8090   22.4010 C.3    73  ASN73       0.1653
     24  C          8.9940   33.7300   21.0680 C.2    73  ASN73       0.2266
     25  O          9.2280   32.6520   20.5510 O.2    73  ASN73      -0.2867
     26  CB         6.7710   33.7950   22.1310 C.3    73  ASN73       0.1155
     27  CG         6.0210   32.9430   23.1070 C.2    73  ASN73       0.2627
     28  OD1        6.5070   32.6780   24.2060 O.2    73  ASN73      -0.2716
     29  ND2        4.8260   32.5070   22.7230 N.am   73  ASN73      -0.0877
     30  N          0.7100   33.8290   16.3130 N.3   152  HIS152     -0.1241
     31  CA         0.7420   32.4540   16.7810 C.3   152  HIS152      0.1621
     32  C         -0.3940   32.2630   17.7520 C.2   152  HIS152      0.2264
     33  O         -0.5330   33.0230   18.7090 O.2   152  HIS152     -0.2867
     34  CB         2.0710   32.1400   17.4880 C.3   152  HIS152      0.0745
     35  CG         2.0890   30.8110   18.1840 C.ar  152  HIS152      0.0817
     36  ND1        2.3170   30.6820   19.5360 N.ar  152  HIS152     -0.2268
     37  CD2        1.9010   29.5550   17.7150 C.ar  152  HIS152      0.1154
     38  CE1        2.2680   29.4050   19.8710 C.ar  152  HIS152      0.1986
     39  NE2        2.0180   28.6990   18.7840 N.ar  152  HIS152     -0.2212
     40  N         -6.7240   19.8080   29.2910 N.3   192  ILE192     -0.1245
     41  CA        -7.2130   21.0280   29.8950 C.3   192  ILE192      0.1561
     42  C         -8.5500   21.4520   29.2750 C.2   192  ILE192      0.2260
     43  O         -9.0890   22.4980   29.6180 O.2   192  ILE192     -0.2867
     44  CB        -6.1640   22.1490   29.7870 C.3   192  ILE192      0.0252
     45  CG1       -4.7710   21.6020   30.1000 C.3   192  ILE192      0.0019
     46  CG2       -6.4400   23.2110   30.8340 C.3   192  ILE192      0.0019
     47  CD1       -4.5830   21.1620   31.5430 C.3   192  ILE192      0.0001
     48  N         -2.8570   33.3970   35.9420 N.3   213  TYR213     -0.1241
     49  CA        -1.5440   32.7780   35.7780 C.3   213  TYR213      0.1605
     50  C         -0.3970   33.6460   35.2780 C.2   213  TYR213      0.2264
     51  O          0.0730   33.4760   34.1470 O.2   213  TYR213     -0.2867
     52  CB        -1.6370   31.5410   34.8840 C.3   213  TYR213      0.0534
     53  CG        -2.1390   30.3210   35.6090 C.ar  213  TYR213     -0.0201
     54  CD1       -3.4670   30.2320   36.0290 C.ar  213  TYR213     -0.0009
     55  CD2       -1.2840   29.2630   35.9030 C.ar  213  TYR213     -0.0009
     56  CE1       -3.9300   29.1210   36.7220 C.ar  213  TYR213      0.0417
     57  CE2       -1.7400   28.1490   36.5960 C.ar  213  TYR213      0.0417
     58  CZ        -3.0630   28.0860   37.0000 C.ar  213  TYR213      0.1957
     59  OH        -3.5240   26.9830   37.6740 O.3   213  TYR213     -0.2866
     60  N         11.0100   26.7420   40.1700 N.3   222  LEU222     -0.1245
     61  CA        10.7600   25.5840   39.3250 C.3   222  LEU222      0.1561
     62  C         11.5230   25.7000   38.0240 C.2   222  LEU222      0.2260
     63  O         12.0910   24.7260   37.5400 O.2   222  LEU222     -0.2867
     64  CB         9.2760   25.4670   39.0000 C.3   222  LEU222      0.0270
     65  CG         8.3570   25.2370   40.1900 C.3   222  LEU222      0.0019
     66  CD1        6.9270   25.0960   39.6840 C.3   222  LEU222      0.0001
     67  CD2        8.8040   23.9880   40.9560 C.3   222  LEU222      0.0001
     68  N          8.5460   19.7420   33.7460 N.3   236  CYS236     -0.1235
     69  CA         8.3980   20.9380   32.9460 C.3   236  CYS236      0.1677
     70  C          8.0400   20.6060   31.4990 C.2   236  CYS236      0.2270
     71  O          7.0460   21.1140   30.9740 O.2   236  CYS236     -0.2867
     72  CB         9.6940   21.7460   32.9990 C.3   236  CYS236      0.0956
     73  SG        10.3280   21.9630   34.6900 S.3   236  CYS236     -0.0801
     74  N          4.5630   19.0670   30.9910 N.3   239  ALA239     -0.1231
     75  CA         3.4950   20.0000   31.3190 C.3   239  ALA239      0.1694
     76  C          3.2030   20.7740   30.0410 C.2   239  ALA239      0.2591
     77  O          2.0560   21.1190   29.7490 O.2   239  ALA239     -0.2718
     78  CB         3.9500   20.9580   32.4250 C.3   239  ALA239      0.0304
     79  N          4.2650   21.0400   29.2880 N.am  240  LEU240     -0.1980
     80  CA         4.1710   21.7610   28.0340 C.3   240  LEU240      0.1596
     81  C          3.5300   20.8910   26.9540 C.2   240  LEU240      0.2287
     82  O          2.7030   21.3610   26.1680 O.2   240  LEU240     -0.2864
     83  CB         5.5650   22.2010   27.5840 C.3   240  LEU240      0.0297
     84  CG         6.2230   23.3770   28.3150 C.3   240  LEU240      0.0022
     85  CD1        7.6500   23.5560   27.8230 C.3   240  LEU240      0.0001
     86  CD2        5.4190   24.6570   28.0690 C.3   240  LEU240      0.0001
     87  N         -0.2140   20.2930   27.1260 N.3   243  ILE243     -0.1231
     88  CA        -0.9130   21.4690   26.6450 C.3   243  ILE243      0.1692
     89  C         -0.8680   21.6190   25.1270 C.2   243  ILE243      0.2592
     90  O         -1.8870   21.9060   24.4930 O.2   243  ILE243     -0.2718
     91  CB        -0.3020   22.7430   27.2500 C.3   243  ILE243      0.0266
     92  CG1       -0.4490   22.7150   28.7690 C.3   243  ILE243      0.0019
     93  CG2       -0.9770   23.9730   26.6660 C.3   243  ILE243      0.0020
     94  CD1        0.1260   23.9300   29.4780 C.3   243  ILE243      0.0001
     95  N          0.3150   21.4110   24.5540 N.am  244  CYS244     -0.1970
     96  CA         0.5220   21.5880   23.1240 C.3   244  CYS244      0.1712
     97  C          0.5170   20.3720   22.2030 C.2   244  CYS244      0.2296
     98  O          0.2510   20.5060   21.0070 O.2   244  CYS244     -0.2864
     99  CB         1.8380   22.3240   22.9150 C.3   244  CYS244      0.0983
    100  SG         2.0350   23.7330   23.9860 S.3   244  CYS244     -0.0798
    101  N          9.9930   28.3280   30.8160 N.3   260  LEU260     -0.1245
    102  CA         9.1190   28.4230   31.9700 C.3   260  LEU260      0.1561
    103  C          9.3670   29.5980   32.8840 C.2   260  LEU260      0.2260
    104  O          8.5730   29.8580   33.7910 O.2   260  LEU260     -0.2867
    105  CB         9.1510   27.1100   32.7490 C.3   260  LEU260      0.0270
    106  CG         8.4150   26.0520   31.9160 C.3   260  LEU260      0.0019
    107  CD1        9.2420   24.7930   31.7990 C.3   260  LEU260      0.0001
    108  CD2        7.0610   25.7690   32.5280 C.3   260  LEU260      0.0001
    109  N          7.0820   31.9110   30.6190 N.3   263  ASN263     -0.1226
    110  CA         5.7290   31.4940   30.3060 C.3   263  ASN263      0.1770
    111  C          5.1830   30.7190   31.4950 C.2   263  ASN263      0.2439
    112  O          5.8770   29.8850   32.0680 O.2   263  ASN263     -0.2733
    113  CB         5.7110   30.6110   29.0460 C.3   263  ASN263      0.1168
    114  CG         6.2620   31.3270   27.8130 C.2   263  ASN263      0.2627
    115  OD1        7.4420   31.2110   27.4820 O.2   263  ASN263     -0.2716
    116  ND2        5.4040   32.0800   27.1400 N.am  263  ASN263     -0.0877
    117  N          3.9300   30.9990   31.8900 N.am  264  PRO264     -0.2729
    118  CA         3.0290   31.9800   31.2680 C.3   264  PRO264      0.1401
    119  C          3.3370   33.4300   31.6580 C.2   264  PRO264      0.2269
    120  O          3.9590   33.6880   32.6920 O.2   264  PRO264     -0.2865
    121  CB         1.6540   31.5310   31.7510 C.3   264  PRO264      0.0296
    122  CG         1.9470   31.0900   33.1210 C.3   264  PRO264      0.0237
    123  CD         3.2390   30.2810   32.9710 C.3   264  PRO264      0.0939
    124  N         -4.2220   22.2930   20.6750 N.3   326  LEU326     -0.1245
    125  CA        -4.9600   23.5450   20.8310 C.3   326  LEU326      0.1561
    126  C         -5.4840   24.0100   19.4850 C.2   326  LEU326      0.2260
    127  O         -6.6900   24.1660   19.2980 O.2   326  LEU326     -0.2867
    128  CB        -4.0490   24.6080   21.4460 C.3   326  LEU326      0.0270
    129  CG        -3.8330   24.3640   22.9410 C.3   326  LEU326      0.0019
    130  CD1       -2.7790   25.3020   23.4640 C.3   326  LEU326      0.0001
    131  CD2       -5.1570   24.5590   23.6790 C.3   326  LEU326      0.0001
    132  N          1.7690   22.3160   19.2790 N.3   353  HIS353     -0.1226
    133  CA         1.5270   23.7400   19.3890 C.3   353  HIS353      0.1752
    134  C          2.7270   24.6560   19.6740 C.2   353  HIS353      0.2595
    135  O          2.8210   25.7480   19.1050 O.2   353  HIS353     -0.2718
    136  CB         0.4360   24.0040   20.4200 C.3   353  HIS353      0.0759
    137  CG        -0.1000   25.3930   20.3530 C.ar  353  HIS353      0.0818
    138  ND1       -0.8260   25.8470   19.2720 N.ar  353  HIS353     -0.2268
    139  CD2        0.0640   26.4550   21.1750 C.ar  353  HIS353      0.1154
    140  CE1       -1.0820   27.1330   19.4310 C.ar  353  HIS353      0.1986
    141  NE2       -0.5530   27.5280   20.5770 N.ar  353  HIS353     -0.2212
    142  N          3.6300   24.2360   20.5540 N.am  354  LEU354     -0.1980
    143  CA         4.7840   25.0620   20.8850 C.3   354  LEU354      0.1596
    144  C          5.9120   25.0210   19.8460 C.2   354  LEU354      0.2287
    145  O          6.7910   25.8820   19.8440 O.2   354  LEU354     -0.2864
    146  CB         5.3320   24.6700   22.2720 C.3   354  LEU354      0.0297
    147  CG         5.8130   23.2370   22.5760 C.3   354  LEU354      0.0022
    148  CD1        7.1610   22.9350   21.9040 C.3   354  LEU354      0.0001
    149  CD2        5.9280   23.0800   24.0890 C.3   354  LEU354      0.0001
    150  N          7.0240   28.0920   17.7200 N.3   357  ILE357     -0.1231
    151  CA         7.8260   29.1550   18.3170 C.3   357  ILE357      0.1692
    152  C          9.1350   28.6220   18.9030 C.2   357  ILE357      0.2592
    153  O         10.1020   29.3760   19.0310 O.2   357  ILE357     -0.2718
    154  CB         7.0630   29.9310   19.4590 C.3   357  ILE357      0.0266
    155  CG1        6.7820   29.0060   20.6440 C.3   357  ILE357      0.0019
    156  CG2        5.7410   30.5260   18.9390 C.3   357  ILE357      0.0020
    157  CD1        6.1660   29.7300   21.8290 C.3   357  ILE357      0.0001
    158  N          9.1780   27.3240   19.2290 N.am  358  TRP358     -0.1976
    159  CA        10.3690   26.7160   19.8450 C.3   358  TRP358      0.1640
    160  C         11.0170   25.4730   19.2000 C.2   358  TRP358      0.2290
    161  O         12.1300   25.1030   19.5630 O.2   358  TRP358     -0.2864
    162  CB        10.0610   26.3690   21.3070 C.3   358  TRP358      0.0576
    163  CG         9.6390   27.5280   22.1790 C.ar  358  TRP358      0.0006
    164  CD1        9.9660   28.8440   22.0160 C.ar  358  TRP358      0.0946
    165  CD2        8.8970   27.4500   23.4080 C.ar  358  TRP358      0.0152
    166  NE1        9.4800   29.5880   23.0660 N.ar  358  TRP358     -0.2442
    167  CE2        8.8210   28.7580   23.9340 C.ar  358  TRP358      0.0810
    168  CE3        8.2930   26.3990   24.1180 C.ar  358  TRP358      0.0012
    169  CZ2        8.1660   29.0470   25.1380 C.ar  358  TRP358      0.0191
    170  CZ3        7.6410   26.6880   25.3200 C.ar  358  TRP358      0.0001
    171  CH2        7.5850   28.0030   25.8140 C.ar  358  TRP358      0.0015
@<TRIPOS>BOND
     1    30    31    1
     2    31    34    1
     3    31    32    1
     4    34    35    1
     5    37    35   ar
     6    37    39   ar
     7   150   151    1
     8    32    33    2
     9    35    36   ar
    10   151   152    1
    11   151   154    1
    12    39    38   ar
    13   152   153    2
    14   152   158   am
    15   156   154    1
    16   135   134    2
    17   160   161    2
    18   160   159    1
    19   158   159    1
    20   138   140   ar
    21   138   137   ar
    22   132   133    1
    23   127   126    2
    24   133   134    1
    25   133   136    1
    26   140   141   ar
    27   154   155    1
    28   126   125    1
    29    36    38   ar
    30   134   142   am
    31   145   144    2
    32   159   162    1
    33   144   143    1
    34   137   136    1
    35   137   139   ar
    36    25    24    2
    37   142   143    1
    38   141   139   ar
    39   155   157    1
    40   124   125    1
    41   125   128    1
    42   143   146    1
    43    98    97    2
    44    24    23    1
    45   162   163    1
    46   128   129    1
    47   148   147    1
    48   164   163   ar
    49   164   166   ar
    50    26    23    1
    51    26    27    1
    52   163   165   ar
    53    97    96    1
    54   146   147    1
    55    23    22    1
    56   147   149    1
    57    29    27   am
    58    99    96    1
    59    99   100    1
    60   129   130    1
    61   129   131    1
    62   166   167   ar
    63    27    28    2
    64    96    95    1
    65   165   167   ar
    66   165   168   ar
    67     1     2    1
    68   167   169   ar
    69   168   170   ar
    70    90    89    2
    71    95    89   am
    72    21    18    1
    73     2     5    1
    74     2     3    1
    75    89    88    1
    76   169   171   ar
    77     5     6    1
    78   170   171   ar
    79     4     3    2
    80     3     9   am
    81    82    81    2
    82    19    18    1
    83    19    20    2
    84    18    17    1
    85     8     6    1
    86     6     7    1
    87    88    87    1
    88    88    91    1
    89    93    91    1
    90    17    11   am
    91    81    80    1
    92   116   114   am
    93     9    10    1
    94    91    92    1
    95   115   114    2
    96    83    80    1
    97    83    84    1
    98   114   113    1
    99    85    84    1
   100    11    10    1
   101    11    12    2
   102    80    79    1
   103    86    84    1
   104    10    13    1
   105    92    94    1
   106   113   110    1
   107    13    14    1
   108    42    43    2
   109    42    41    1
   110    79    76   am
   111    40    41    1
   112    77    76    2
   113    44    41    1
   114    44    45    1
   115    44    46    1
   116    14    15    1
   117    14    16    1
   118    76    75    1
   119    45    47    1
   120   110   109    1
   121   110   111    1
   122   101   102    1
   123    71    70    2
   124    74    75    1
   125   118   119    1
   126   118   121    1
   127   118   117    1
   128    75    78    1
   129   111   117   am
   130   111   112    2
   131    70    69    1
   132   119   120    2
   133   121   122    1
   134   107   106    1
   135   117   123    1
   136   106   108    1
   137   106   105    1
   138   102   105    1
   139   102   103    1
   140   103   104    2
   141    69    72    1
   142    69    68    1
   143   123   122    1
   144    72    73    1
   145    51    50    2
   146    52    53    1
   147    52    49    1
   148    50    49    1
   149    53    55   ar
   150    53    54   ar
   151    49    48    1
   152    55    57   ar
   153    54    56   ar
   154    57    58   ar
   155    56    58   ar
   156    58    59    1
   157    63    62    2
   158    62    61    1
   159    64    61    1
   160    64    65    1
   161    61    60    1
   162    66    65    1
   163    65    67    1
