@<TRIPOS>MOLECULE
tmp/1k8qB05.pdb
 176 166 0 0 0
SMALL
GASTEIGER

@<TRIPOS>ATOM
      1  N          0.7130   34.6080   21.4890 N.3    66  GLY66      -0.1210
      2  CA        -0.6330   34.1860   21.8390 C.3    66  GLY66       0.1956
      3  C         -0.9440   34.2410   23.3270 C.2    66  GLY66       0.2612
      4  O         -0.2500   34.9080   24.0960 O.2    66  GLY66      -0.2717
      5  N         -1.9950   33.5230   23.7230 N.am   67  LEU67      -0.1965
      6  CA        -2.4630   33.4590   25.1080 C.3    67  LEU67       0.1728
      7  C         -1.4110   33.0630   26.1540 C.2    67  LEU67       0.2616
      8  O         -0.6770   32.0890   25.9850 O.2    67  LEU67      -0.2715
      9  CB        -3.6520   32.4960   25.1840 C.3    67  LEU67       0.0311
     10  CG        -4.2970   32.2190   26.5380 C.3    67  LEU67       0.0022
     11  CD1       -4.9630   33.4720   27.0620 C.3    67  LEU67       0.0001
     12  CD2       -5.3040   31.0860   26.3820 C.3    67  LEU67       0.0001
     13  N         -1.3730   33.8290   27.2420 N.am   68  LEU68      -0.1977
     14  CA        -0.4550   33.6220   28.3600 C.3    68  LEU68       0.1596
     15  C          1.0210   33.6300   27.9660 C.2    68  LEU68       0.2287
     16  O          1.8720   33.0970   28.6770 O.2    68  LEU68      -0.2864
     17  CB        -0.8100   32.3260   29.1020 C.3    68  LEU68       0.0297
     18  CG        -2.0720   32.3730   29.9810 C.3    68  LEU68       0.0022
     19  CD1       -2.3640   31.0010   30.5750 C.3    68  LEU68       0.0001
     20  CD2       -1.8800   33.3850   31.0890 C.3    68  LEU68       0.0001
     21  N          0.7100   33.8290   16.3130 N.3   152  HIS152     -0.1226
     22  CA         0.7420   32.4540   16.7810 C.3   152  HIS152      0.1752
     23  C         -0.3940   32.2630   17.7520 C.2   152  HIS152      0.2597
     24  O         -0.5330   33.0230   18.7090 O.2   152  HIS152     -0.2718
     25  CB         2.0710   32.1400   17.4880 C.3   152  HIS152      0.0759
     26  CG         2.0890   30.8110   18.1840 C.ar  152  HIS152      0.0818
     27  ND1        2.3170   30.6820   19.5360 N.ar  152  HIS152     -0.2268
     28  CD2        1.9010   29.5550   17.7150 C.ar  152  HIS152      0.1154
     29  CE1        2.2680   29.4050   19.8710 C.ar  152  HIS152      0.1986
     30  NE2        2.0180   28.6990   18.7840 N.ar  152  HIS152     -0.2212
     31  N         -1.2170   31.2580   17.4940 N.am  153  SER153     -0.1938
     32  CA        -2.3260   30.9640   18.3850 C.3   153  SER153      0.2055
     33  C         -3.2930   32.1460   18.4530 C.2   153  SER153      0.2642
     34  O         -3.7880   32.6260   17.4350 O.2   153  SER153     -0.2714
     35  CB        -1.7640   30.6750   19.7750 C.3   153  SER153      0.2130
     36  OG        -2.4380   29.6080   20.3860 O.3   153  SER153     -0.2179
     37  N         -3.5620   32.6000   19.6700 N.am  154  GLN154     -0.1976
     38  CA        -4.4360   33.7370   19.9020 C.3   154  GLN154      0.1601
     39  C         -3.8470   34.9210   19.1300 C.2   154  GLN154      0.2287
     40  O         -4.5360   35.9000   18.8360 O.2   154  GLN154     -0.2864
     41  CB        -4.4790   34.0290   21.4030 C.3   154  GLN154      0.0394
     42  CG        -5.2700   35.2470   21.7960 C.3   154  GLN154      0.0908
     43  CD        -5.1590   35.5290   23.2720 C.2   154  GLN154      0.2608
     44  OE1       -5.9470   35.0240   24.0840 O.2   154  GLN154     -0.2717
     45  NE2       -4.1580   36.3230   23.6400 N.am  154  GLN154     -0.0878
     46  N         -5.9280   29.9550   15.1630 N.3   182  VAL182     -0.1245
     47  CA        -7.0620   29.6090   16.0070 C.3   182  VAL182      0.1561
     48  C         -8.2320   30.5780   15.8800 C.2   182  VAL182      0.2260
     49  O         -8.1480   31.7330   16.2930 O.2   182  VAL182     -0.2867
     50  CB        -6.6660   29.5480   17.4900 C.3   182  VAL182      0.0252
     51  CG1       -7.8840   29.2080   18.3320 C.3   182  VAL182      0.0019
     52  CG2       -5.5760   28.5230   17.6930 C.3   182  VAL182      0.0019
     53  N        -12.2600   26.7310   18.8650 N.3   185  VAL185     -0.1245
     54  CA       -11.6270   25.6550   19.6270 C.3   185  VAL185      0.1561
     55  C        -12.6920   24.6560   20.0900 C.2   185  VAL185      0.2260
     56  O        -12.8560   24.4180   21.2940 O.2   185  VAL185     -0.2867
     57  CB       -10.8720   26.2000   20.8750 C.3   185  VAL185      0.0252
     58  CG1       -9.6360   26.9680   20.4310 C.3   185  VAL185      0.0019
     59  CG2      -11.8030   27.0980   21.7120 C.3   185  VAL185      0.0019
     60  N        -10.4400   20.8700   20.3610 N.3   188  THR188     -0.1218
     61  CA        -9.1050   20.8320   20.9460 C.3   188  THR188      0.1862
     62  C         -8.9330   19.4730   21.6270 C.2   188  THR188      0.2287
     63  O         -9.9030   18.8790   22.0970 O.2   188  THR188     -0.2866
     64  CB        -8.8970   21.9660   21.9840 C.3   188  THR188      0.1770
     65  OG1       -9.7840   21.7690   23.0880 O.3   188  THR188     -0.2211
     66  CG2       -9.1620   23.3420   21.3580 C.3   188  THR188      0.0375
     67  N         -6.2880   18.8230   24.1030 N.3   190  THR190     -0.1218
     68  CA        -5.5930   18.8810   25.3890 C.3   190  THR190      0.1862
     69  C         -6.5320   18.5940   26.5640 C.2   190  THR190      0.2287
     70  O         -7.6670   19.0530   26.5930 O.2   190  THR190     -0.2866
     71  CB        -4.8970   20.2580   25.6040 C.3   190  THR190      0.1770
     72  OG1       -4.2080   20.2540   26.8560 O.3   190  THR190     -0.2211
     73  CG2       -5.9010   21.3830   25.6030 C.3   190  THR190      0.0375
     74  N         -6.7240   19.8080   29.2910 N.3   192  ILE192     -0.1231
     75  CA        -7.2130   21.0280   29.8950 C.3   192  ILE192      0.1692
     76  C         -8.5500   21.4520   29.2750 C.2   192  ILE192      0.2592
     77  O         -9.0890   22.4980   29.6180 O.2   192  ILE192     -0.2718
     78  CB        -6.1640   22.1490   29.7870 C.3   192  ILE192      0.0266
     79  CG1       -4.7710   21.6020   30.1000 C.3   192  ILE192      0.0019
     80  CG2       -6.4400   23.2110   30.8340 C.3   192  ILE192      0.0020
     81  CD1       -4.5830   21.1620   31.5430 C.3   192  ILE192      0.0001
     82  N         -9.0720   20.6280   28.3620 N.am  193  ASN193     -0.1974
     83  CA       -10.3740   20.8550   27.7190 C.3   193  ASN193      0.1688
     84  C        -11.3780   21.1550   28.8200 C.2   193  ASN193      0.2292
     85  O        -11.9460   22.2410   28.9120 O.2   193  ASN193     -0.2864
     86  CB       -10.8990   19.5750   27.0440 C.3   193  ASN193      0.1181
     87  CG       -10.4610   19.4270   25.6200 C.2   193  ASN193      0.2629
     88  OD1      -10.4260   20.3960   24.8740 O.2   193  ASN193     -0.2716
     89  ND2      -10.1490   18.1960   25.2160 N.am  193  ASN193     -0.0877
     90  N        -11.3350   21.8020   31.9800 N.3   195  LEU195     -0.1231
     91  CA       -11.2450   22.9400   32.8760 C.3   195  LEU195      0.1693
     92  C        -11.9900   24.1140   32.2210 C.2   195  LEU195      0.2591
     93  O        -12.4040   25.0600   32.8960 O.2   195  LEU195     -0.2718
     94  CB        -9.7630   23.2650   33.1210 C.3   195  LEU195      0.0284
     95  CG        -9.3170   24.4290   34.0130 C.3   195  LEU195      0.0019
     96  CD1       -9.1950   25.6940   33.1780 C.3   195  LEU195      0.0001
     97  CD2      -10.2910   24.6020   35.1760 C.3   195  LEU195      0.0001
     98  N        -12.1850   24.0260   30.9060 N.am  196  MET196     -0.1979
     99  CA       -12.8640   25.0720   30.1370 C.3   196  MET196      0.1605
    100  C        -14.3520   24.8350   29.9480 C.2   196  MET196      0.2287
    101  O        -15.0720   25.7230   29.5020 O.2   196  MET196     -0.2864
    102  CB       -12.2300   25.2060   28.7570 C.3   196  MET196      0.0413
    103  CG       -10.7670   25.5240   28.7860 C.3   196  MET196      0.0598
    104  SD       -10.4520   27.1940   29.3210 S.3   196  MET196     -0.1393
    105  CE       -10.0440   27.9340   27.7580 C.3   196  MET196      0.0692
    106  N         -4.6700   36.3290   35.6910 N.3   212  PHE212     -0.1241
    107  CA        -4.7090   34.8840   35.5040 C.3   212  PHE212      0.1605
    108  C         -3.3120   34.3690   35.1610 C.2   212  PHE212      0.2264
    109  O         -2.6700   34.8430   34.2220 O.2   212  PHE212     -0.2867
    110  CB        -5.6830   34.5170   34.3810 C.3   212  PHE212      0.0534
    111  CG        -5.8830   33.0310   34.2070 C.ar  212  PHE212     -0.0203
    112  CD1       -6.5840   32.2930   35.1560 C.ar  212  PHE212     -0.0042
    113  CD2       -5.3680   32.3690   33.0960 C.ar  212  PHE212     -0.0042
    114  CE1       -6.7670   30.9170   34.9990 C.ar  212  PHE212     -0.0003
    115  CE2       -5.5460   30.9970   32.9320 C.ar  212  PHE212     -0.0003
    116  CZ        -6.2470   30.2690   33.8850 C.ar  212  PHE212     -0.0000
    117  N         -0.2140   20.2930   27.1260 N.3   243  ILE243     -0.1231
    118  CA        -0.9130   21.4690   26.6450 C.3   243  ILE243      0.1692
    119  C         -0.8680   21.6190   25.1270 C.2   243  ILE243      0.2592
    120  O         -1.8870   21.9060   24.4930 O.2   243  ILE243     -0.2718
    121  CB        -0.3020   22.7430   27.2500 C.3   243  ILE243      0.0266
    122  CG1       -0.4490   22.7150   28.7690 C.3   243  ILE243      0.0019
    123  CG2       -0.9770   23.9730   26.6660 C.3   243  ILE243      0.0020
    124  CD1        0.1260   23.9300   29.4780 C.3   243  ILE243      0.0001
    125  N          0.3150   21.4110   24.5540 N.am  244  CYS244     -0.1970
    126  CA         0.5220   21.5880   23.1240 C.3   244  CYS244      0.1712
    127  C          0.5170   20.3720   22.2030 C.2   244  CYS244      0.2296
    128  O          0.2510   20.5060   21.0070 O.2   244  CYS244     -0.2864
    129  CB         1.8380   22.3240   22.9150 C.3   244  CYS244      0.0983
    130  SG         2.0350   23.7330   23.9860 S.3   244  CYS244     -0.0798
    131  N         -9.5010   34.1880   29.4000 N.3   272  VAL272     -0.1245
    132  CA        -9.6050   32.7380   29.4370 C.3   272  VAL272      0.1561
    133  C        -11.0800   32.3500   29.4790 C.2   272  VAL272      0.2260
    134  O        -11.4910   31.3670   28.8660 O.2   272  VAL272     -0.2867
    135  CB        -8.8720   32.1720   30.6700 C.3   272  VAL272      0.0252
    136  CG1       -9.0490   30.6710   30.7510 C.3   272  VAL272      0.0019
    137  CG2       -7.4080   32.5160   30.5750 C.3   272  VAL272      0.0019
    138  N        -12.3240   32.4570   26.1150 N.3   275  TRP275     -0.1241
    139  CA       -11.8800   31.2800   25.3800 C.3   275  TRP275      0.1605
    140  C        -12.7100   30.0900   25.8070 C.2   275  TRP275      0.2264
    141  O        -12.9950   29.2010   25.0050 O.2   275  TRP275     -0.2867
    142  CB       -10.3980   31.0040   25.6260 C.3   275  TRP275      0.0550
    143  CG        -9.5210   31.7550   24.6930 C.ar  275  TRP275      0.0003
    144  CD1       -8.6110   32.7250   25.0150 C.ar  275  TRP275      0.0946
    145  CD2       -9.4620   31.6040   23.2670 C.ar  275  TRP275      0.0152
    146  NE1       -7.9850   33.1850   23.8760 N.ar  275  TRP275     -0.2442
    147  CE2       -8.4870   32.5140   22.7910 C.ar  275  TRP275      0.0810
    148  CE3      -10.1340   30.7870   22.3450 C.ar  275  TRP275      0.0012
    149  CZ2       -8.1710   32.6280   21.4330 C.ar  275  TRP275      0.0191
    150  CZ3       -9.8180   30.9030   20.9940 C.ar  275  TRP275      0.0001
    151  CH2       -8.8430   31.8170   20.5550 C.ar  275  TRP275      0.0015
    152  N        -14.7830   27.2180   23.7430 N.3   279  VAL279     -0.1245
    153  CA       -14.6890   25.7750   23.8600 C.3   279  VAL279      0.1561
    154  C        -16.0830   25.1650   23.9850 C.2   279  VAL279      0.2260
    155  O        -16.3530   24.0950   23.4450 O.2   279  VAL279     -0.2867
    156  CB       -13.8190   25.3840   25.0740 C.3   279  VAL279      0.0252
    157  CG1      -13.8380   23.8860   25.2760 C.3   279  VAL279      0.0019
    158  CG2      -12.3920   25.8650   24.8530 C.3   279  VAL279      0.0019
    159  N         -4.2220   22.2930   20.6750 N.3   326  LEU326     -0.1245
    160  CA        -4.9600   23.5450   20.8310 C.3   326  LEU326      0.1561
    161  C         -5.4840   24.0100   19.4850 C.2   326  LEU326      0.2260
    162  O         -6.6900   24.1660   19.2980 O.2   326  LEU326     -0.2867
    163  CB        -4.0490   24.6080   21.4460 C.3   326  LEU326      0.0270
    164  CG        -3.8330   24.3640   22.9410 C.3   326  LEU326      0.0019
    165  CD1       -2.7790   25.3020   23.4640 C.3   326  LEU326      0.0001
    166  CD2       -5.1570   24.5590   23.6790 C.3   326  LEU326      0.0001
    167  N          1.7690   22.3160   19.2790 N.3   353  HIS353     -0.1241
    168  CA         1.5270   23.7400   19.3890 C.3   353  HIS353      0.1621
    169  C          2.7270   24.6560   19.6740 C.2   353  HIS353      0.2264
    170  O          2.8210   25.7480   19.1050 O.2   353  HIS353     -0.2867
    171  CB         0.4360   24.0040   20.4200 C.3   353  HIS353      0.0745
    172  CG        -0.1000   25.3930   20.3530 C.ar  353  HIS353      0.0817
    173  ND1       -0.8260   25.8470   19.2720 N.ar  353  HIS353     -0.2268
    174  CD2        0.0640   26.4550   21.1750 C.ar  353  HIS353      0.1154
    175  CE1       -1.0820   27.1330   19.4310 C.ar  353  HIS353      0.1986
    176  NE2       -0.5530   27.5280   20.5770 N.ar  353  HIS353     -0.2212
@<TRIPOS>BOND
     1    46    47    1
     2    48    47    1
     3    48    49    2
     4    47    50    1
     5    21    22    1
     6    22    25    1
     7    22    23    1
     8    34    33    2
     9    25    26    1
    10    50    52    1
    11    50    51    1
    12    31    23   am
    13    31    32    1
    14    28    26   ar
    15    28    30   ar
    16    23    24    2
    17    26    27   ar
    18    32    33    1
    19    32    35    1
    20    33    37   am
    21    30    29   ar
    22    40    39    2
    23    53    54    1
    24   170   169    2
    25    39    38    1
    26   173   175   ar
    27   173   172   ar
    28   167   168    1
    29   162   161    2
    30   168   169    1
    31   168   171    1
    32   175   176   ar
    33   161   160    1
    34    27    29   ar
    35    54    55    1
    36    54    57    1
    37    37    38    1
    38    35    36    1
    39    38    41    1
    40    55    56    2
    41   172   171    1
    42   172   174   ar
    43    60    61    1
    44    58    57    1
    45   151   150   ar
    46   151   149   ar
    47   176   174   ar
    48   159   160    1
    49   160   163    1
    50    57    59    1
    51    61    62    1
    52    61    64    1
    53   150   148   ar
    54   128   127    2
    55    66    64    1
    56    41    42    1
    57   149   147   ar
    58   163   164    1
    59     1     2    1
    60    62    63    2
    61    42    43    1
    62     2     3    1
    63    64    65    1
    64   127   126    1
    65   148   145   ar
    66   147   145   ar
    67   147   146   ar
    68   129   126    1
    69   129   130    1
    70   164   165    1
    71   164   166    1
    72   126   125    1
    73   145   143   ar
    74    43    45   am
    75    43    44    2
    76     3     5   am
    77     3     4    2
    78   155   154    2
    79     5     6    1
    80   152   153    1
    81   153   154    1
    82   153   156    1
    83   146   144   ar
    84    67    68    1
    85   120   119    2
    86   125   119   am
    87   143   144   ar
    88   143   142    1
    89   158   156    1
    90    88    87    2
    91   141   140    2
    92   156   157    1
    93     6     9    1
    94     6     7    1
    95   119   118    1
    96     9    10    1
    97    89    87   am
    98   139   142    1
    99   139   140    1
   100   139   138    1
   101    68    71    1
   102    68    69    1
   103    73    71    1
   104    71    72    1
   105    87    86    1
   106     8     7    2
   107     7    13   am
   108    12    10    1
   109    10    11    1
   110    69    70    2
   111   118   117    1
   112   118   121    1
   113   123   121    1
   114    86    83    1
   115    13    14    1
   116   121   122    1
   117    83    82    1
   118    83    84    1
   119   105   104    1
   120    15    14    1
   121    15    16    2
   122    14    17    1
   123    82    76   am
   124   102   103    1
   125   102    99    1
   126   122   124    1
   127   103   104    1
   128    84    85    2
   129   134   133    2
   130    17    18    1
   131    76    77    2
   132    76    75    1
   133    74    75    1
   134   131   132    1
   135   132   133    1
   136   132   135    1
   137   101   100    2
   138    78    75    1
   139    78    79    1
   140    78    80    1
   141   100    99    1
   142    18    19    1
   143    18    20    1
   144    79    81    1
   145    99    98    1
   146   137   135    1
   147   135   136    1
   148    98    92   am
   149    90    91    1
   150    92    91    1
   151    92    93    2
   152    91    94    1
   153   115   113   ar
   154   115   116   ar
   155   113   111   ar
   156    94    95    1
   157    96    95    1
   158   116   114   ar
   159    95    97    1
   160   111   110    1
   161   111   112   ar
   162   109   108    2
   163   110   107    1
   164   114   112   ar
   165   108   107    1
   166   107   106    1
