@<TRIPOS>MOLECULE
tmp/1k8zA00.pdb
 129 121 0 0 0
SMALL
GASTEIGER

@<TRIPOS>ATOM
      1  N         45.7980   33.1120   16.5330 N.3    22  PHE22      -0.1241
      2  CA        47.0800   32.7690   17.1690 C.3    22  PHE22       0.1605
      3  C         48.0200   33.9750   17.1220 C.2    22  PHE22       0.2264
      4  O         48.0730   34.7090   16.1540 O.2    22  PHE22      -0.2867
      5  CB        47.7560   31.5790   16.3750 C.3    22  PHE22       0.0534
      6  CG        49.2720   31.4350   16.7890 C.ar   22  PHE22      -0.0203
      7  CD1       50.1760   32.2320   16.1960 C.ar   22  PHE22      -0.0042
      8  CD2       49.6380   30.5340   17.7760 C.ar   22  PHE22      -0.0042
      9  CE1       51.6200   32.0990   16.6260 C.ar   22  PHE22      -0.0003
     10  CE2       50.8950   30.3280   18.2210 C.ar   22  PHE22      -0.0003
     11  CZ        51.8940   31.1470   17.6480 C.ar   22  PHE22      -0.0000
     12  N         44.9760   31.3430   21.0280 N.3    49  GLU49      -0.1245
     13  CA        45.9650   30.3230   20.9510 C.3    49  GLU49       0.1567
     14  C         47.4080   31.0670   21.0650 C.2    49  GLU49       0.2260
     15  O         47.5950   32.0210   20.2730 O.2    49  GLU49      -0.2867
     16  CB        46.0360   29.4900   19.6460 C.3    49  GLU49       0.0388
     17  CG        46.9330   28.3240   19.7270 C.3    49  GLU49       0.1160
     18  CD        47.1100   27.5470   18.3950 C.2    49  GLU49       0.3649
     19  OE1       46.9460   28.2360   17.3540 O.co2  49  GLU49      -0.2457
     20  OE2       47.3890   26.3330   18.3820 O.co2  49  GLU49      -0.2457
     21  N         58.6880   23.3980   13.7350 N.3    59  ALA59      -0.1231
     22  CA        57.4620   23.1590   13.1440 C.3    59  ALA59       0.1694
     23  C         56.8400   24.4640   12.6640 C.2    59  ALA59       0.2592
     24  O         55.7160   24.4490   12.2290 O.2    59  ALA59      -0.2718
     25  CB        56.6040   22.5060   14.0560 C.3    59  ALA59       0.0304
     26  N         57.5310   25.5700   12.7400 N.am   60  ASP60      -0.1974
     27  CA        56.9400   26.7060   12.2180 C.3    60  ASP60       0.1709
     28  C         57.4690   27.2930   10.8710 C.2    60  ASP60       0.2293
     29  O         58.7010   27.3150   10.6760 O.2    60  ASP60      -0.2864
     30  CB        57.2150   27.7940   13.1480 C.3    60  ASP60       0.1436
     31  CG        56.1790   27.6410   14.3370 C.2    60  ASP60       0.3671
     32  OD1       54.8890   27.9090   13.9700 O.co2  60  ASP60      -0.2456
     33  OD2       56.5110   27.2150   15.4790 O.co2  60  ASP60      -0.2456
     34  N         55.8850   32.8870   11.4830 N.3    64  ILE64      -0.1245
     35  CA        56.0470   32.6180   12.8740 C.3    64  ILE64       0.1561
     36  C         57.5180   32.5520   13.3300 C.2    64  ILE64       0.2260
     37  O         57.8620   33.0630   14.3620 O.2    64  ILE64      -0.2867
     38  CB        55.0510   31.4690   13.2720 C.3    64  ILE64       0.0252
     39  CG1       53.5310   32.1360   13.1720 C.3    64  ILE64       0.0019
     40  CG2       55.4070   31.0110   14.7800 C.3    64  ILE64       0.0019
     41  CD1       52.3770   31.0190   13.1550 C.3    64  ILE64       0.0001
     42  N         50.7660   27.0730   22.5230 N.3   100  LEU100     -0.1301
     43  CA        51.4560   26.1990   21.5120 C.3   100  LEU100      0.1247
     44  C         53.0010   26.2040   22.0710 C.3   100  LEU100      0.2009
     45  O         53.5270   27.3250   22.0840 O.3   100  LEU100     -0.2188
     46  CB        51.4180   26.9960   20.2340 C.3   100  LEU100      0.0217
     47  CG        51.7690   25.9820   18.9660 C.3   100  LEU100      0.0015
     48  CD1       53.3600   26.1780   19.0180 C.3   100  LEU100      0.0000
     49  CD2       51.3780   24.6660   18.7110 C.3   100  LEU100      0.0000
     50  N         49.0790   22.5930   23.2160 N.3   127  LEU127     -0.1301
     51  CA        49.3630   21.6290   22.1350 C.3   127  LEU127      0.1247
     52  C         51.0820   21.7400   21.9450 C.3   127  LEU127      0.2009
     53  O         51.4080   22.8760   21.9830 O.3   127  LEU127     -0.2188
     54  CB        48.8430   22.4830   20.8740 C.3   127  LEU127      0.0217
     55  CG        48.8360   21.4950   19.7190 C.3   127  LEU127      0.0015
     56  CD1       48.0500   22.3040   18.4900 C.3   127  LEU127      0.0000
     57  CD2       50.1340   20.8630   19.2190 C.3   127  LEU127      0.0000
     58  N         53.9760   21.0150   19.8930 N.3   129  ALA129     -0.1301
     59  CA        54.0080   20.8800   18.3410 C.3   129  ALA129      0.1247
     60  C         54.9010   19.6450   17.9130 C.3   129  ALA129      0.2009
     61  O         54.5630   19.0100   16.8450 O.3   129  ALA129     -0.2188
     62  CB        54.5290   22.1450   17.8370 C.3   129  ALA129      0.0233
     63  N         47.0840   17.4970   16.9450 N.3   153  ILE153     -0.1245
     64  CA        46.7850   17.6190   15.4660 C.3   153  ILE153      0.1561
     65  C         46.4340   16.3880   14.8740 C.2   153  ILE153      0.2260
     66  O         46.8530   15.1880   14.9000 O.2   153  ILE153     -0.2867
     67  CB        48.0740   18.2000   14.8510 C.3   153  ILE153      0.0252
     68  CG1       48.2790   19.5930   15.2030 C.3   153  ILE153      0.0019
     69  CG2       48.0340   18.0580   13.2570 C.3   153  ILE153      0.0019
     70  CD1       49.7210   20.0260   14.9320 C.3   153  ILE153      0.0001
     71  N         42.7340   19.6700   16.7070 N.3   175  TYR175     -0.1241
     72  CA        43.3040   20.6600   15.8290 C.3   175  TYR175      0.1605
     73  C         43.3610   19.9990   14.4460 C.2   175  TYR175      0.2264
     74  O         44.0210   19.0390   14.2130 O.2   175  TYR175     -0.2867
     75  CB        44.7360   21.0910   16.1980 C.3   175  TYR175      0.0534
     76  CG        45.2360   22.3200   15.4590 C.ar  175  TYR175     -0.0201
     77  CD1       45.3900   22.3140   14.0230 C.ar  175  TYR175     -0.0009
     78  CD2       45.5930   23.5030   16.0930 C.ar  175  TYR175     -0.0009
     79  CE1       45.8770   23.4470   13.4730 C.ar  175  TYR175      0.0417
     80  CE2       46.0430   24.6070   15.5130 C.ar  175  TYR175      0.0417
     81  CZ        46.1700   24.5400   14.0810 C.ar  175  TYR175      0.1957
     82  OH        46.6540   25.6780   13.4260 O.3   175  TYR175     -0.2866
     83  N         45.5620   26.3660    9.8690 N.3   201  PHE201     -0.1227
     84  CA        46.5610   26.5150    8.7170 C.3   201  PHE201      0.1736
     85  C         45.9080   26.9900    7.4290 C.2   201  PHE201      0.2596
     86  O         44.9690   26.3620    6.8360 O.2   201  PHE201     -0.2718
     87  CB        47.2540   25.2090    8.3750 C.3   201  PHE201      0.0547
     88  CG        48.4400   24.8220    9.4140 C.ar  201  PHE201     -0.0202
     89  CD1       48.3030   25.0760   10.8380 C.ar  201  PHE201     -0.0042
     90  CD2       49.6400   24.1860    8.9470 C.ar  201  PHE201     -0.0042
     91  CE1       49.4900   24.6750   11.9180 C.ar  201  PHE201     -0.0003
     92  CE2       50.8400   23.7720    9.9930 C.ar  201  PHE201     -0.0003
     93  CZ        50.6940   24.0520   11.4900 C.ar  201  PHE201     -0.0000
     94  N         46.3650   28.1300    7.0300 N.am  202  GLY202     -0.1942
     95  CA        45.9210   28.5070    5.6030 C.3   202  GLY202      0.2014
     96  C         44.5490   29.3380    5.8340 C.2   202  GLY202      0.2635
     97  O         43.9360   29.9250    4.9210 O.2   202  GLY202     -0.2714
     98  N         44.1220   29.4610    7.1260 N.am  203  ILE203     -0.2030
     99  CA        42.7400   30.0860    7.2320 C.3   203  ILE203      0.1282
    100  C         42.9420   31.5680    7.1890 C.3   203  ILE203      0.2035
    101  O         43.3270   32.1800    8.2590 O.3   203  ILE203     -0.2185
    102  CB        42.1000   29.8180    8.6900 C.3   203  ILE203      0.0226
    103  CG1       41.9470   28.4100    8.9540 C.3   203  ILE203      0.0018
    104  CG2       40.7820   30.7130    8.7860 C.3   203  ILE203      0.0018
    105  CD1       41.0500   27.8790    7.8280 C.3   203  ILE203      0.0001
    106  N         40.8810   28.3630   13.2340 N.3   221  ILE221     -0.1231
    107  CA        42.0180   29.1130   13.8570 C.3   221  ILE221      0.1692
    108  C         42.9030   29.8150   12.7910 C.2   221  ILE221      0.2593
    109  O         43.1530   29.0850   11.7820 O.2   221  ILE221     -0.2718
    110  CB        42.8570   28.0270   14.5400 C.3   221  ILE221      0.0266
    111  CG1       42.2380   27.4110   15.7860 C.3   221  ILE221      0.0019
    112  CG2       44.1340   28.9110   15.0340 C.3   221  ILE221      0.0020
    113  CD1       42.8180   26.0570   16.1680 C.3   221  ILE221      0.0001
    114  N         43.1920   30.9510   12.9610 N.am  222  SER222     -0.1938
    115  CA        44.0310   31.8360   12.1070 C.3   222  SER222      0.2055
    116  C         45.2250   32.3240   12.7770 C.2   222  SER222      0.2644
    117  O         45.0720   32.9990   13.8170 O.2   222  SER222     -0.2714
    118  CB        43.2140   32.9590   11.5350 C.3   222  SER222      0.2130
    119  OG        44.0490   33.9470   10.8570 O.3   222  SER222     -0.2179
    120  N         46.4410   32.0860   12.1730 N.am  223  GLY223     -0.1939
    121  CA        47.6470   32.6660   12.9280 C.3   223  GLY223      0.2014
    122  C         48.6050   33.3300   11.8850 C.2   223  GLY223      0.2639
    123  O         48.8930   34.4450   12.0750 O.2   223  GLY223     -0.2714
    124  N         48.9880   32.5790   10.9130 N.am  224  SER224     -0.1949
    125  CA        49.9380   33.2840   10.0370 C.3   224  SER224      0.1924
    126  C         49.3940   34.5750    9.7140 C.2   224  SER224      0.2314
    127  O         50.0200   35.6590    9.7000 O.2   224  SER224     -0.2863
    128  CB        49.9210   32.5140    8.6920 C.3   224  SER224      0.2116
    129  OG        50.8780   31.6060    8.9090 O.3   224  SER224     -0.2180
@<TRIPOS>BOND
     1    97    96    2
     2    95    96    1
     3    95    94    1
     4    96    98   am
     5    86    85    2
     6    94    85   am
     7    98    99    1
     8   100    99    1
     9   100   101    1
    10    99   102    1
    11    85    84    1
    12   105   103    1
    13    87    84    1
    14    87    88    1
    15   102   104    1
    16   102   103    1
    17   128   129    1
    18   128   125    1
    19    84    83    1
    20    90    88   ar
    21    90    92   ar
    22    88    89   ar
    23   127   126    2
    24   126   125    1
    25    92    93   ar
    26   125   124    1
    27    29    28    2
    28    89    91   ar
    29   119   118    1
    30    28    27    1
    31   124   122   am
    32    34    35    1
    33    93    91   ar
    34   118   115    1
    35   109   108    2
    36   122   123    2
    37   122   121    1
    38   115   116    1
    39   115   114    1
    40   120   116   am
    41   120   121    1
    42    27    26    1
    43    27    30    1
    44    24    23    2
    45    23    26   am
    46    23    22    1
    47   116   117    2
    48   108   114   am
    49   108   107    1
    50    35    38    1
    51    35    36    1
    52    22    21    1
    53    22    25    1
    54    30    31    1
    55    41    39    1
    56    39    38    1
    57   106   107    1
    58    69    67    1
    59    38    40    1
    60    36    37    2
    61    82    81    1
    62    79    77   ar
    63    79    81   ar
    64   107   110    1
    65    32    31   ar
    66    77    76   ar
    67    81    80   ar
    68    74    73    2
    69    31    33   ar
    70    73    72    1
    71   110   112    1
    72   110   111    1
    73    67    68    1
    74    67    64    1
    75    65    66    2
    76    65    64    1
    77    70    68    1
    78    76    78   ar
    79    76    75    1
    80    64    63    1
    81    80    78   ar
    82   111   113    1
    83    72    75    1
    84    72    71    1
    85     4     3    2
    86     7     9   ar
    87     7     6   ar
    88     5     6    1
    89     5     2    1
    90     1     2    1
    91     9    11   ar
    92     6     8   ar
    93    61    60    1
    94     3     2    1
    95    19    18   ar
    96    11    10   ar
    97     8    10   ar
    98    62    59    1
    99    60    59    1
   100    59    58    1
   101    20    18   ar
   102    18    17    1
   103    56    55    1
   104    49    47    1
   105    47    48    1
   106    47    46    1
   107    57    55    1
   108    16    17    1
   109    16    13    1
   110    55    54    1
   111    46    43    1
   112    15    14    2
   113    54    51    1
   114    13    12    1
   115    13    14    1
   116    43    44    1
   117    43    42    1
   118    52    53    1
   119    52    51    1
   120    44    45    1
   121    51    50    1
