@<TRIPOS>MOLECULE
tmp/1k97A00.pdb
 106 98 0 0 0
SMALL
GASTEIGER

@<TRIPOS>ATOM
      1  N         25.4020   14.4950   44.9680 N.3   106  ARG106     -0.1245
      2  CA        25.3770   13.4670   43.9390 C.3   106  ARG106      0.1563
      3  C         24.4760   12.3020   44.2920 C.2   106  ARG106      0.2260
      4  O         23.8060   11.7490   43.4190 O.2   106  ARG106     -0.2867
      5  CB        26.7830   12.9280   43.6400 C.3   106  ARG106      0.0307
      6  CG        27.8270   13.9710   43.2400 C.3   106  ARG106      0.0489
      7  CD        27.3110   15.0920   42.3260 C.3   106  ARG106      0.2205
      8  NE        28.4260   15.8960   41.8180 N.pl3 106  ARG106     -0.0865
      9  CZ        28.2990   17.0840   41.2320 C.cat 106  ARG106      0.5346
     10  NH1       27.1040   17.6170   41.0800 N.pl3 106  ARG106      0.1354
     11  NH2       29.3710   17.7390   40.7880 N.pl3 106  ARG106      0.1354
     12  N         30.3160   15.5330   34.0900 N.3   129  SER129     -0.1202
     13  CA        31.5050   15.2180   34.8950 C.3   129  SER129      0.2020
     14  C         32.6380   14.6290   34.0400 C.2   129  SER129      0.2619
     15  O         32.3880   13.8480   33.1240 O.2   129  SER129     -0.2717
     16  CB        31.1360   14.2260   36.0010 C.3   129  SER129      0.2103
     17  OG        30.6840   13.0100   35.4290 O.3   129  SER129     -0.2182
     18  N         33.8840   14.9810   34.3520 N.am  130  THR130     -0.1952
     19  CA        35.0330   14.4850   33.5850 C.3   130  THR130      0.1897
     20  C         35.4320   13.0430   33.9130 C.2   130  THR130      0.2313
     21  O         35.0460   12.4980   34.9430 O.2   130  THR130     -0.2863
     22  CB        36.2860   15.3620   33.8010 C.3   130  THR130      0.1794
     23  OG1       36.9010   15.0190   35.0510 O.3   130  THR130     -0.2208
     24  CG2       35.9170   16.8390   33.8030 C.3   130  THR130      0.0378
     25  N         38.2190   12.1900   34.7240 N.3   132  LYS132     -0.1231
     26  CA        39.3020   12.2960   35.6850 C.3   132  LYS132      0.1693
     27  C         38.8700   12.4440   37.1520 C.2   132  LYS132      0.2593
     28  O         39.6800   12.2490   38.0510 O.2   132  LYS132     -0.2718
     29  CB        40.1820   13.5030   35.3380 C.3   132  LYS132      0.0285
     30  CG        40.8420   13.4670   33.9660 C.3   132  LYS132      0.0035
     31  CD        41.5590   14.7930   33.6960 C.3   132  LYS132      0.0206
     32  CE        42.6310   14.6480   32.6200 C.3   132  LYS132      0.1093
     33  NZ        43.7160   13.7330   33.0760 N.3   132  LYS132     -0.1314
     34  N         37.6140   12.7890   37.3980 N.am  133  GLY133     -0.1942
     35  CA        37.1830   13.0030   38.7710 C.3   133  GLY133      0.2014
     36  C         36.3820   11.9240   39.4620 C.2   133  GLY133      0.2639
     37  O         36.3390   10.7790   39.0100 O.2   133  GLY133     -0.2714
     38  N         35.7550   12.3050   40.5740 N.am  134  ASN134     -0.1958
     39  CA        34.9400   11.3930   41.3680 C.3   134  ASN134      0.1819
     40  C         33.4970   11.3730   40.9010 C.2   134  ASN134      0.2621
     41  O         32.8450   10.3430   40.9510 O.2   134  ASN134     -0.2715
     42  CB        34.9070   11.8100   42.8580 C.3   134  ASN134      0.1195
     43  CG        36.2910   11.9320   43.4820 C.2   134  ASN134      0.2630
     44  OD1       37.0980   10.9970   43.4400 O.2   134  ASN134     -0.2716
     45  ND2       36.5640   13.0890   44.0810 N.am  134  ASN134     -0.0877
     46  N         32.9990   12.5280   40.4720 N.am  135  ASP135     -0.1957
     47  CA        31.6040   12.6490   40.0810 C.3   135  ASP135      0.1840
     48  C         31.1190   11.6750   39.0060 C.2   135  ASP135      0.2621
     49  O         30.0350   11.1240   39.1260 O.2   135  ASP135     -0.2715
     50  CB        31.3150   14.1090   39.7110 C.3   135  ASP135      0.1450
     51  CG        31.3730   15.0340   40.9220 C.2   135  ASP135      0.3671
     52  OD1       31.8040   16.2020   40.7810 O.co2 135  ASP135     -0.2456
     53  OD2       30.9700   14.5940   42.0260 O.co2 135  ASP135     -0.2456
     54  N         31.9200   11.4330   37.9770 N.am  136  ILE136     -0.1977
     55  CA        31.5230   10.4920   36.9310 C.3   136  ILE136      0.1596
     56  C         31.1980    9.1220   37.5330 C.2   136  ILE136      0.2287
     57  O         30.2800    8.4350   37.0890 O.2   136  ILE136     -0.2864
     58  CB        32.6430   10.3340   35.8590 C.3   136  ILE136      0.0276
     59  CG1       32.1900    9.3770   34.7490 C.3   136  ILE136      0.0022
     60  CG2       33.9220    9.8100   36.4880 C.3   136  ILE136      0.0022
     61  CD1       33.1950    9.2710   33.6020 C.3   136  ILE136      0.0001
     62  N         30.3470    8.6240   40.8360 N.3   138  ARG138     -0.1245
     63  CA        29.2340    8.7460   41.7730 C.3   138  ARG138      0.1563
     64  C         27.9440    8.6670   40.9600 C.2   138  ARG138      0.2260
     65  O         27.0480    7.8910   41.2760 O.2   138  ARG138     -0.2867
     66  CB        29.2930   10.0830   42.5160 C.3   138  ARG138      0.0307
     67  CG        30.4120   10.1490   43.5670 C.3   138  ARG138      0.0489
     68  CD        30.6800   11.5700   44.0290 C.3   138  ARG138      0.2205
     69  NE        31.8270   11.6270   44.9350 N.pl3 138  ARG138     -0.0865
     70  CZ        32.5690   12.7150   45.1400 C.cat 138  ARG138      0.5346
     71  NH1       32.2960   13.8480   44.5010 N.pl3 138  ARG138      0.1354
     72  NH2       33.5830   12.6760   45.9950 N.pl3 138  ARG138      0.1354
     73  N         36.6220   26.1300   39.1260 N.3   191  SER191     -0.1217
     74  CA        35.2690   25.6650   38.8450 C.3   191  SER191      0.1889
     75  C         34.5530   25.4590   40.1900 C.2   191  SER191      0.2288
     76  O         35.1940   25.3440   41.2490 O.2   191  SER191     -0.2866
     77  CB        35.2880   24.3590   38.0510 C.3   191  SER191      0.2089
     78  OG        35.8120   23.3030   38.8400 O.3   191  SER191     -0.2183
     79  N         31.0520   23.4960   42.2680 N.3   193  ASP193     -0.1239
     80  CA        29.8670   22.6490   42.3100 C.3   193  ASP193      0.1674
     81  C         29.1920   23.1710   43.5740 C.2   193  ASP193      0.2266
     82  O         29.8100   23.2230   44.6360 O.2   193  ASP193     -0.2867
     83  CB        30.1440   21.1540   42.5000 C.3   193  ASP193      0.1410
     84  CG        28.8410   20.3540   42.6170 C.2   193  ASP193      0.3668
     85  OD1       28.0380   20.4070   41.6580 O.co2 193  ASP193     -0.2456
     86  OD2       28.5940   19.6950   43.6580 O.co2 193  ASP193     -0.2456
     87  N         37.4480   24.2010   42.8770 N.3   202  GLU202     -0.1245
     88  CA        38.7050   23.5280   42.5370 C.3   202  GLU202      0.1567
     89  C         39.0070   23.6550   41.0390 C.2   202  GLU202      0.2260
     90  O         38.2400   24.2610   40.3000 O.2   202  GLU202     -0.2867
     91  CB        38.6620   22.0470   42.9560 C.3   202  GLU202      0.0388
     92  CG        37.6520   21.1670   42.2160 C.3   202  GLU202      0.1160
     93  CD        37.5790   19.7400   42.8110 C.2   202  GLU202      0.3649
     94  OE1       37.7150   18.7620   42.0580 O.co2 202  GLU202     -0.2457
     95  OE2       37.3920   19.5960   44.0390 O.co2 202  GLU202     -0.2457
     96  N         41.3070   11.2730   45.5420 N.3   281  ARG281     -0.1245
     97  CA        40.1370   10.9290   44.7330 C.3   281  ARG281      0.1563
     98  C         39.9530    9.4120   44.7140 C.2   281  ARG281      0.2260
     99  O         40.8570    8.6660   45.1070 O.2   281  ARG281     -0.2867
    100  CB        40.2840   11.4240   43.2870 C.3   281  ARG281      0.0307
    101  CG        40.2060   12.9250   43.1420 C.3   281  ARG281      0.0489
    102  CD        40.0020   13.3220   41.6960 C.3   281  ARG281      0.2205
    103  NE        39.9000   14.7690   41.5680 N.pl3 281  ARG281     -0.0865
    104  CZ        40.1960   15.4380   40.4610 C.cat 281  ARG281      0.5346
    105  NH1       40.6030   14.7810   39.3790 N.pl3 281  ARG281      0.1354
    106  NH2       40.1300   16.7630   40.4550 N.pl3 281  ARG281      0.1354
@<TRIPOS>BOND
     1    32    33    1
     2    32    31    1
     3    15    14    2
     4    19    22    1
     5    19    20    1
     6    19    18    1
     7    61    59    1
     8    31    30    1
     9    22    24    1
    10    22    23    1
    11    20    21    2
    12    30    29    1
    13    14    18   am
    14    14    13    1
    15    12    13    1
    16    25    26    1
    17    59    58    1
    18    13    16    1
    19    29    26    1
    20    17    16    1
    21    26    27    1
    22    58    60    1
    23    58    55    1
    24    55    56    1
    25    55    54    1
    26    57    56    2
    27    27    34   am
    28    27    28    2
    29    34    35    1
    30    54    48   am
    31    77    78    1
    32    77    74    1
    33    35    36    1
    34    74    73    1
    35    74    75    1
    36    48    49    2
    37    48    47    1
    38    37    36    2
    39   105   104    1
    40    36    38   am
    41    50    47    1
    42    50    51    1
    43    47    46    1
    44    75    76    2
    45    90    89    2
    46   106   104    1
    47   104   103    2
    48    46    40   am
    49    38    39    1
    50    52    51   ar
    51    11     9    1
    52    62    63    1
    53    40    41    2
    54    40    39    1
    55    51    53   ar
    56    64    65    2
    57    64    63    1
    58    89    88    1
    59    10     9    1
    60     9     8    2
    61    39    42    1
    62   103   102    1
    63    85    84   ar
    64   102   101    1
    65    63    66    1
    66     8     7    1
    67    94    93   ar
    68    92    93    1
    69    92    91    1
    70    79    80    1
    71    80    83    1
    72    80    81    1
    73     7     6    1
    74    83    84    1
    75    66    67    1
    76    88    87    1
    77    88    91    1
    78    84    86   ar
    79    93    95   ar
    80    42    43    1
    81   101   100    1
    82     6     5    1
    83   100    97    1
    84     4     3    2
    85    44    43    2
    86    43    45   am
    87    67    68    1
    88    81    82    2
    89     5     2    1
    90     2     3    1
    91     2     1    1
    92    68    69    1
    93    71    70    1
    94    98    97    1
    95    98    99    2
    96    97    96    1
    97    69    70    2
    98    70    72    1
