@<TRIPOS>MOLECULE
tmp/1k9eA00.pdb
 159 153 0 0 0
SMALL
GASTEIGER

@<TRIPOS>ATOM
      1  N         31.5910   39.5390  147.8590 N.3   147  TRP147     -0.1241
      2  CA        31.2650   39.5930  149.2730 C.3   147  TRP147      0.1605
      3  C         32.5430   39.7630  150.0900 C.2   147  TRP147      0.2264
      4  O         32.6060   39.4070  151.2680 O.2   147  TRP147     -0.2867
      5  CB        30.4880   38.3400  149.6850 C.3   147  TRP147      0.0550
      6  CG        29.0510   38.3790  149.2080 C.ar  147  TRP147      0.0003
      7  CD1       28.4610   39.3620  148.4600 C.ar  147  TRP147      0.0946
      8  CD2       28.0350   37.3980  149.4500 C.ar  147  TRP147      0.0152
      9  NE1       27.1410   39.0540  148.2230 N.ar  147  TRP147     -0.2442
     10  CE2       26.8540   37.8530  148.8190 C.ar  147  TRP147      0.0810
     11  CE3       28.0080   36.1770  150.1390 C.ar  147  TRP147      0.0012
     12  CZ2       25.6560   37.1290  148.8550 C.ar  147  TRP147      0.0191
     13  CZ3       26.8180   35.4560  150.1760 C.ar  147  TRP147      0.0001
     14  CH2       25.6570   35.9370  149.5370 C.ar  147  TRP147      0.0015
     15  N         33.0150   36.9260  152.8720 N.3   155  GLU155     -0.1231
     16  CA        31.8710   36.2450  153.4580 C.3   155  GLU155      0.1699
     17  C         31.4400   35.1470  152.4910 C.2   155  GLU155      0.2592
     18  O         31.1780   35.4050  151.3170 O.2   155  GLU155     -0.2718
     19  CB        30.7200   37.2220  153.7190 C.3   155  GLU155      0.0402
     20  CG        29.6560   36.6230  154.6280 C.3   155  GLU155      0.1161
     21  CD        28.7010   37.6540  155.1990 C.2   155  GLU155      0.3649
     22  OE1       29.1080   38.8240  155.3770 O.co2 155  GLU155     -0.2457
     23  OE2       27.5440   37.2820  155.4900 O.co2 155  GLU155     -0.2457
     24  N         31.3800   33.9190  152.9950 N.am  156  ARG156     -0.1980
     25  CA        31.0210   32.7600  152.1850 C.3   156  ARG156      0.1597
     26  C         32.0400   32.5810  151.0540 C.2   156  ARG156      0.2287
     27  O         31.6840   32.2380  149.9240 O.2   156  ARG156     -0.2864
     28  CB        29.6070   32.9140  151.6080 C.3   156  ARG156      0.0334
     29  CG        28.5460   33.2990  152.6390 C.3   156  ARG156      0.0492
     30  CD        28.5100   32.3560  153.8370 C.3   156  ARG156      0.2205
     31  NE        27.5340   32.8090  154.8260 N.pl3 156  ARG156     -0.0865
     32  CZ        27.3010   32.2100  155.9890 C.cat 156  ARG156      0.5346
     33  NH1       27.9750   31.1190  156.3300 N.pl3 156  ARG156      0.1354
     34  NH2       26.3790   32.7000  156.8090 N.pl3 156  ARG156      0.1354
     35  N         31.5570   43.5640  149.9670 N.3   196  ASN196     -0.1225
     36  CA        30.4680   42.8340  150.6130 C.3   196  ASN196      0.1785
     37  C         29.1780   43.6430  150.7540 C.2   196  ASN196      0.2597
     38  O         29.2120   44.8250  151.1110 O.2   196  ASN196     -0.2718
     39  CB        30.9390   42.3830  151.9990 C.3   196  ASN196      0.1169
     40  CG        30.0450   41.3320  152.6160 C.2   196  ASN196      0.2627
     41  OD1       28.9790   41.0200  152.0920 O.2   196  ASN196     -0.2716
     42  ND2       30.4780   40.7820  153.7450 N.am  196  ASN196     -0.0877
     43  N         28.0430   43.0030  150.4760 N.am  197  VAL197     -0.1966
     44  CA        26.7510   43.6670  150.6050 C.3   197  VAL197      0.1727
     45  C         26.4930   43.9870  152.0830 C.2   197  VAL197      0.2616
     46  O         25.6970   44.8710  152.4080 O.2   197  VAL197     -0.2715
     47  CB        25.6160   42.8000  150.0160 C.3   197  VAL197      0.0290
     48  CG1       25.8040   42.6810  148.5030 C.3   197  VAL197      0.0023
     49  CG2       25.6140   41.4160  150.6540 C.3   197  VAL197      0.0023
     50  N         27.1560   43.2510  152.9740 N.am  198  ASN198     -0.1972
     51  CA        27.0660   43.5250  154.4090 C.3   198  ASN198      0.1688
     52  C         28.2370   44.4850  154.6060 C.2   198  ASN198      0.2292
     53  O         29.3760   44.0520  154.7960 O.2   198  ASN198     -0.2864
     54  CB        27.3050   42.2690  155.2590 C.3   198  ASN198      0.1181
     55  CG        26.1230   41.3190  155.2620 C.2   198  ASN198      0.2629
     56  OD1       24.9660   41.7420  155.2290 O.2   198  ASN198     -0.2716
     57  ND2       26.4110   40.0190  155.3290 N.am  198  ASN198     -0.0877
     58  N         21.8480   46.4930  150.4500 N.3   278  LYS278     -0.1245
     59  CA        21.2100   45.4830  151.2810 C.3   278  LYS278      0.1561
     60  C         20.7780   46.2600  152.5220 C.2   278  LYS278      0.2260
     61  O         21.6130   46.6240  153.3510 O.2   278  LYS278     -0.2867
     62  CB        22.1820   44.3710  151.6830 C.3   278  LYS278      0.0271
     63  CG        21.5500   43.3630  152.6430 C.3   278  LYS278      0.0035
     64  CD        22.5010   42.2310  153.0020 C.3   278  LYS278      0.0206
     65  CE        21.8660   41.2840  154.0160 C.3   278  LYS278      0.1093
     66  NZ        22.7710   40.1480  154.3520 N.3   278  LYS278     -0.1314
     67  N         18.5410   45.0670  146.6210 N.3   310  ARG310     -0.1245
     68  CA        18.3340   43.6390  146.8490 C.3   310  ARG310      0.1563
     69  C         17.0350   43.3610  147.5980 C.2   310  ARG310      0.2260
     70  O         16.7170   44.0270  148.5840 O.2   310  ARG310     -0.2867
     71  CB        19.5220   43.0590  147.6130 C.3   310  ARG310      0.0307
     72  CG        20.8260   43.1870  146.8600 C.3   310  ARG310      0.0489
     73  CD        21.9760   42.5700  147.6270 C.3   310  ARG310      0.2205
     74  NE        21.9970   41.1080  147.5640 N.pl3 310  ARG310     -0.0865
     75  CZ        21.9740   40.3120  148.6270 C.cat 310  ARG310      0.5346
     76  NH1       21.9100   40.8270  149.8500 N.pl3 310  ARG310      0.1354
     77  NH2       22.0670   38.9970  148.4720 N.pl3 310  ARG310      0.1354
     78  N         16.3460   40.5490  149.1200 N.3   312  PHE312     -0.1241
     79  CA        16.5480   39.4820  150.0870 C.3   312  PHE312      0.1605
     80  C         16.1650   40.0690  151.4390 C.2   312  PHE312      0.2264
     81  O         17.0230   40.4650  152.2300 O.2   312  PHE312     -0.2867
     82  CB        18.0100   39.0260  150.0970 C.3   312  PHE312      0.0534
     83  CG        18.2680   37.8380  150.9810 C.ar  312  PHE312     -0.0203
     84  CD1       17.5500   36.6550  150.8050 C.ar  312  PHE312     -0.0042
     85  CD2       19.2340   37.8930  151.9830 C.ar  312  PHE312     -0.0042
     86  CE1       17.7930   35.5400  151.6170 C.ar  312  PHE312     -0.0003
     87  CE2       19.4830   36.7880  152.7980 C.ar  312  PHE312     -0.0003
     88  CZ        18.7610   35.6080  152.6140 C.ar  312  PHE312     -0.0000
     89  N         13.3390   39.5790  154.8280 N.3   314  TYR314     -0.1241
     90  CA        12.4440   38.6580  155.5110 C.3   314  TYR314      0.1605
     91  C         12.5160   38.8520  157.0170 C.2   314  TYR314      0.2264
     92  O         13.4160   39.5210  157.5270 O.2   314  TYR314     -0.2867
     93  CB        12.8210   37.2160  155.1610 C.3   314  TYR314      0.0534
     94  CG        14.2160   36.8300  155.5970 C.ar  314  TYR314     -0.0201
     95  CD1       14.4590   36.3410  156.8830 C.ar  314  TYR314     -0.0009
     96  CD2       15.3000   36.9730  154.7330 C.ar  314  TYR314     -0.0009
     97  CE1       15.7490   36.0030  157.2960 C.ar  314  TYR314      0.0417
     98  CE2       16.5930   36.6390  155.1360 C.ar  314  TYR314      0.0417
     99  CZ        16.8100   36.1540  156.4170 C.ar  314  TYR314      0.1957
    100  OH        18.0860   35.8180  156.8140 O.3   314  TYR314     -0.2866
    101  N          8.2910   32.3610  155.2810 N.3   327  ARG327     -0.1245
    102  CA         9.3960   33.1670  154.7840 C.3   327  ARG327      0.1563
    103  C          9.4200   33.2200  153.2590 C.2   327  ARG327      0.2260
    104  O          9.8010   34.2330  152.6710 O.2   327  ARG327     -0.2867
    105  CB        10.7280   32.6160  155.3030 C.3   327  ARG327      0.0307
    106  CG        11.9460   33.3160  154.7320 C.3   327  ARG327      0.0489
    107  CD        13.2360   32.8150  155.3660 C.3   327  ARG327      0.2205
    108  NE        14.4030   33.3160  154.6470 N.pl3 327  ARG327     -0.0865
    109  CZ        15.6620   33.1080  155.0200 C.cat 327  ARG327      0.5346
    110  NH1       15.9280   32.4070  156.1140 N.pl3 327  ARG327      0.1354
    111  NH2       16.6570   33.6000  154.2950 N.pl3 327  ARG327      0.1354
    112  N         16.9780   37.0250  144.2680 N.3   351  LYS351     -0.1245
    113  CA        17.6410   35.7210  144.2090 C.3   351  LYS351      0.1561
    114  C         16.8020   34.7710  143.3610 C.2   351  LYS351      0.2260
    115  O         15.5810   34.9350  143.2610 O.2   351  LYS351     -0.2867
    116  CB        17.8280   35.1490  145.6180 C.3   351  LYS351      0.0271
    117  CG        18.9020   35.8680  146.4310 C.3   351  LYS351      0.0035
    118  CD        19.1850   35.1860  147.7680 C.3   351  LYS351      0.0206
    119  CE        20.2780   35.9290  148.5370 C.3   351  LYS351      0.1093
    120  NZ        20.6570   35.2440  149.8140 N.3   351  LYS351     -0.1314
    121  N         16.8370   30.9660  150.1730 N.3   356  ASP356     -0.1239
    122  CA        18.2320   31.4000  150.2370 C.3   356  ASP356      0.1674
    123  C         19.2650   30.4820  149.5860 C.2   356  ASP356      0.2266
    124  O         19.9700   29.7410  150.2720 O.2   356  ASP356     -0.2867
    125  CB        18.6230   31.6690  151.6970 C.3   356  ASP356      0.1410
    126  CG        20.0440   32.2110  151.8400 C.2   356  ASP356      0.3668
    127  OD1       20.5670   32.8220  150.8800 O.co2 356  ASP356     -0.2456
    128  OD2       20.6330   32.0360  152.9280 O.co2 356  ASP356     -0.2456
    129  N         27.8480   28.2390  148.7150 N.3   384  GLU384     -0.1231
    130  CA        27.5030   28.2510  150.1340 C.3   384  GLU384      0.1699
    131  C         26.7190   27.0240  150.5910 C.2   384  GLU384      0.2592
    132  O         27.0690   26.3870  151.5820 O.2   384  GLU384     -0.2718
    133  CB        26.7070   29.5100  150.4870 C.3   384  GLU384      0.0402
    134  CG        26.2720   29.5310  151.9440 C.3   384  GLU384      0.1161
    135  CD        25.6310   30.8400  152.3610 C.2   384  GLU384      0.3649
    136  OE1       25.4740   31.7310  151.4990 O.co2 384  GLU384     -0.2457
    137  OE2       25.2880   30.9680  153.5570 O.co2 384  GLU384     -0.2457
    138  N         25.6530   26.7000  149.8750 N.am  385  TYR385     -0.1976
    139  CA        24.8310   25.5510  150.2370 C.3   385  TYR385      0.1639
    140  C         24.9890   24.4290  149.2340 C.2   385  TYR385      0.2290
    141  O         24.2880   23.4190  149.3130 O.2   385  TYR385     -0.2864
    142  CB        23.3630   25.9650  150.2930 C.3   385  TYR385      0.0560
    143  CG        23.0770   27.0440  151.3050 C.ar  385  TYR385     -0.0198
    144  CD1       23.0590   26.7580  152.6690 C.ar  385  TYR385     -0.0009
    145  CD2       22.8010   28.3520  150.9010 C.ar  385  TYR385     -0.0009
    146  CE1       22.7670   27.7350  153.6030 C.ar  385  TYR385      0.0417
    147  CE2       22.5090   29.3430  151.8330 C.ar  385  TYR385      0.0417
    148  CZ        22.4910   29.0270  153.1790 C.ar  385  TYR385      0.1957
    149  OH        22.1870   29.9920  154.1100 O.3   385  TYR385     -0.2866
    150  N         27.1680   26.5420  157.5130 N.3   519  HIS519     -0.1241
    151  CA        26.3180   25.9070  156.5040 C.3   519  HIS519      0.1621
    152  C         26.8790   24.7350  155.7030 C.2   519  HIS519      0.2264
    153  O         26.3260   24.3740  154.6580 O.2   519  HIS519     -0.2867
    154  CB        25.8140   26.9810  155.5400 C.3   519  HIS519      0.0745
    155  CG        25.0160   28.0530  156.2110 C.ar  519  HIS519      0.0817
    156  ND1       24.7900   29.2870  155.6380 N.ar  519  HIS519     -0.2268
    157  CD2       24.3920   28.0760  157.4130 C.ar  519  HIS519      0.1154
    158  CE1       24.0630   30.0230  156.4590 C.ar  519  HIS519      0.1986
    159  NE2       23.8080   29.3120  157.5430 N.ar  519  HIS519     -0.2212
@<TRIPOS>BOND
     1   115   114    2
     2   114   113    1
     3   113   112    1
     4   113   116    1
     5   116   117    1
     6   117   118    1
     7    67    68    1
     8    68    69    1
     9    68    71    1
    10    72    71    1
    11    72    73    1
    12    74    73    1
    13    74    75    2
    14    69    70    2
    15   118   119    1
    16     1     2    1
    17     9     7   ar
    18     9    10   ar
    19     7     6   ar
    20    77    75    1
    21    48    47    1
    22   119   120    1
    23    75    76    1
    24   129   130    1
    25    10    12   ar
    26    10     8   ar
    27    12    14   ar
    28    78    79    1
    29     6     8   ar
    30     6     5    1
    31   140   141    2
    32   140   139    1
    33     2     5    1
    34     2     3    1
    35     8    11   ar
    36    14    13   ar
    37   123   122    1
    38   123   124    2
    39   138   139    1
    40   138   131   am
    41    27    26    2
    42    35    36    1
    43    47    44    1
    44    47    49    1
    45    79    82    1
    46    79    80    1
    47     3     4    2
    48    82    83    1
    49   130   133    1
    50   130   131    1
    51    11    13   ar
    52   121   122    1
    53   139   142    1
    54   122   125    1
    55   142   143    1
    56    58    59    1
    57    43    44    1
    58    43    37   am
    59   133   134    1
    60   131   132    2
    61    44    45    1
    62    36    37    1
    63    36    39    1
    64    37    38    2
    65    84    83   ar
    66    84    86   ar
    67   127   126   ar
    68   145   143   ar
    69   145   147   ar
    70    83    85   ar
    71    26    25    1
    72    59    62    1
    73    59    60    1
    74   143   144   ar
    75    18    17    2
    76    80    81    2
    77   136   135   ar
    78    28    25    1
    79    28    29    1
    80    86    88   ar
    81    62    63    1
    82   125   126    1
    83   147   148   ar
    84   126   128   ar
    85   134   135    1
    86    85    87   ar
    87    39    40    1
    88    45    46    2
    89    45    50   am
    90    41    40    2
    91    25    24    1
    92   135   137   ar
    93    17    24   am
    94    17    16    1
    95    60    61    2
    96    88    87   ar
    97    40    42   am
    98    29    30    1
    99    63    64    1
   100   144   146   ar
   101   104   103    2
   102    15    16    1
   103    50    51    1
   104    64    65    1
   105   148   146   ar
   106   148   149    1
   107   103   102    1
   108    16    19    1
   109    19    20    1
   110    30    31    1
   111    65    66    1
   112   111   109    1
   113    51    52    1
   114    51    54    1
   115    52    53    2
   116    20    21    1
   117   108   109    2
   118   108   107    1
   119   153   152    2
   120   106   105    1
   121   106   107    1
   122    96    98   ar
   123    96    94   ar
   124   102   101    1
   125   102   105    1
   126    31    32    2
   127    89    90    1
   128   109   110    1
   129    98    99   ar
   130    93    90    1
   131    93    94    1
   132    21    22   ar
   133    21    23   ar
   134    56    55    2
   135    54    55    1
   136    55    57   am
   137    90    91    1
   138   154   155    1
   139   154   151    1
   140    94    95   ar
   141   156   155   ar
   142   156   158   ar
   143   152   151    1
   144    32    33    1
   145    32    34    1
   146   155   157   ar
   147    99   100    1
   148    99    97   ar
   149   158   159   ar
   150   151   150    1
   151    95    97   ar
   152    91    92    2
   153   157   159   ar
