@<TRIPOS>MOLECULE
tmp/1k9fA00.pdb
 210 204 0 0 0
SMALL
GASTEIGER

@<TRIPOS>ATOM
      1  N         31.6290   39.4990  147.7090 N.3   147  TRP147     -0.1241
      2  CA        31.2640   39.5560  149.1210 C.3   147  TRP147      0.1605
      3  C         32.5380   39.7250  149.9500 C.2   147  TRP147      0.2264
      4  O         32.5930   39.3760  151.1310 O.2   147  TRP147     -0.2867
      5  CB        30.4760   38.3010  149.5260 C.3   147  TRP147      0.0550
      6  CG        29.0460   38.3300  149.0250 C.ar  147  TRP147      0.0003
      7  CD1       28.4670   39.3040  148.2560 C.ar  147  TRP147      0.0946
      8  CD2       28.0250   37.3520  149.2640 C.ar  147  TRP147      0.0152
      9  NE1       27.1510   38.9920  148.0020 N.ar  147  TRP147     -0.2442
     10  CE2       26.8540   37.7990  148.6080 C.ar  147  TRP147      0.0810
     11  CE3       27.9850   36.1410  149.9680 C.ar  147  TRP147      0.0012
     12  CZ2       25.6530   37.0750  148.6360 C.ar  147  TRP147      0.0191
     13  CZ3       26.7910   35.4220  149.9970 C.ar  147  TRP147      0.0001
     14  CH2       25.6410   35.8940  149.3320 C.ar  147  TRP147      0.0015
     15  N         33.0340   36.8330  152.6890 N.3   155  GLU155     -0.1231
     16  CA        31.8900   36.1500  153.2720 C.3   155  GLU155      0.1699
     17  C         31.4410   35.0720  152.2880 C.2   155  GLU155      0.2592
     18  O         31.1680   35.3560  151.1220 O.2   155  GLU155     -0.2718
     19  CB        30.7530   37.1410  153.5570 C.3   155  GLU155      0.0402
     20  CG        29.5860   36.5030  154.2850 C.3   155  GLU155      0.1161
     21  CD        28.6790   37.5130  154.9590 C.2   155  GLU155      0.3649
     22  OE1       29.0950   38.6800  155.1270 O.co2 155  GLU155     -0.2457
     23  OE2       27.5500   37.1320  155.3390 O.co2 155  GLU155     -0.2457
     24  N         31.3790   33.8350  152.7720 N.am  156  ARG156     -0.1980
     25  CA        31.0040   32.6830  151.9530 C.3   156  ARG156      0.1597
     26  C         32.0270   32.4970  150.8340 C.2   156  ARG156      0.2287
     27  O         31.6810   32.1250  149.7090 O.2   156  ARG156     -0.2864
     28  CB        29.6020   32.8590  151.3580 C.3   156  ARG156      0.0334
     29  CG        28.5330   33.2180  152.3830 C.3   156  ARG156      0.0492
     30  CD        28.5190   32.2650  153.5730 C.3   156  ARG156      0.2205
     31  NE        27.5210   32.6780  154.5580 N.pl3 156  ARG156     -0.0865
     32  CZ        27.2750   32.0450  155.7010 C.cat 156  ARG156      0.5346
     33  NH1       27.9580   30.9530  156.0250 N.pl3 156  ARG156      0.1354
     34  NH2       26.3330   32.5000  156.5190 N.pl3 156  ARG156      0.1354
     35  N         31.5680   43.5250  149.8180 N.3   196  ASN196     -0.1225
     36  CA        30.4660   42.8000  150.4490 C.3   196  ASN196      0.1785
     37  C         29.1730   43.6090  150.5700 C.2   196  ASN196      0.2597
     38  O         29.2000   44.7890  150.9370 O.2   196  ASN196     -0.2718
     39  CB        30.9170   42.3600  151.8450 C.3   196  ASN196      0.1169
     40  CG        30.0470   41.2710  152.4360 C.2   196  ASN196      0.2627
     41  OD1       28.9610   40.9820  151.9380 O.2   196  ASN196     -0.2716
     42  ND2       30.5220   40.6670  153.5180 N.am  196  ASN196     -0.0877
     43  N         28.0420   42.9710  150.2720 N.am  197  VAL197     -0.1966
     44  CA        26.7510   43.6410  150.3850 C.3   197  VAL197      0.1727
     45  C         26.4950   43.9500  151.8610 C.2   197  VAL197      0.2616
     46  O         25.7130   44.8410  152.1920 O.2   197  VAL197     -0.2715
     47  CB        25.6160   42.7800  149.7990 C.3   197  VAL197      0.0290
     48  CG1       25.8200   42.6310  148.2950 C.3   197  VAL197      0.0023
     49  CG2       25.5900   41.4110  150.4650 C.3   197  VAL197      0.0023
     50  N         27.1480   43.1980  152.7470 N.am  198  ASN198     -0.1972
     51  CA        27.0540   43.4640  154.1810 C.3   198  ASN198      0.1688
     52  C         28.2220   44.4180  154.4040 C.2   198  ASN198      0.2292
     53  O         29.3550   43.9820  154.6000 O.2   198  ASN198     -0.2864
     54  CB        27.2680   42.1960  155.0180 C.3   198  ASN198      0.1181
     55  CG        26.0740   41.2710  154.9950 C.2   198  ASN198      0.2629
     56  OD1       24.9280   41.7130  155.0930 O.2   198  ASN198     -0.2716
     57  ND2       26.3350   39.9730  154.8860 N.am  198  ASN198     -0.0877
     58  N         21.8130   46.5290  150.3110 N.3   278  LYS278     -0.1245
     59  CA        21.1570   45.5260  151.1320 C.3   278  LYS278      0.1561
     60  C         20.6720   46.3330  152.3310 C.2   278  LYS278      0.2260
     61  O         21.4630   46.7260  153.1870 O.2   278  LYS278     -0.2867
     62  CB        22.1340   44.4400  151.5950 C.3   278  LYS278      0.0271
     63  CG        21.4890   43.4370  152.5430 C.3   278  LYS278      0.0035
     64  CD        22.4510   42.3510  152.9880 C.3   278  LYS278      0.0206
     65  CE        21.8130   41.4550  154.0450 C.3   278  LYS278      0.1093
     66  NZ        22.7270   40.3680  154.4930 N.3   278  LYS278     -0.1314
     67  N         18.5730   45.0110  146.4940 N.3   310  ARG310     -0.1245
     68  CA        18.3410   43.5880  146.7240 C.3   310  ARG310      0.1563
     69  C         17.0000   43.3440  147.4120 C.2   310  ARG310      0.2260
     70  O         16.6740   43.9970  148.4040 O.2   310  ARG310     -0.2867
     71  CB        19.4770   42.9990  147.5610 C.3   310  ARG310      0.0307
     72  CG        20.8230   43.0470  146.8650 C.3   310  ARG310      0.0489
     73  CD        21.9060   42.3960  147.7030 C.3   310  ARG310      0.2205
     74  NE        21.9080   40.9360  147.6200 N.pl3 310  ARG310     -0.0865
     75  CZ        21.9470   40.1350  148.6800 C.cat 310  ARG310      0.5346
     76  NH1       21.9700   40.6520  149.9030 N.pl3 310  ARG310      0.1354
     77  NH2       21.9980   38.8190  148.5220 N.pl3 310  ARG310      0.1354
     78  N         16.1860   40.6520  148.9000 N.3   312  PHE312     -0.1241
     79  CA        16.3670   39.6020  149.8930 C.3   312  PHE312      0.1605
     80  C         15.9360   40.1770  151.2320 C.2   312  PHE312      0.2264
     81  O         16.7670   40.4860  152.0860 O.2   312  PHE312     -0.2867
     82  CB        17.8330   39.1650  149.9540 C.3   312  PHE312      0.0534
     83  CG        18.0620   37.9190  150.7680 C.ar  312  PHE312     -0.0203
     84  CD1       17.5170   36.7020  150.3690 C.ar  312  PHE312     -0.0042
     85  CD2       18.8280   37.9590  151.9280 C.ar  312  PHE312     -0.0042
     86  CE1       17.7320   35.5390  151.1130 C.ar  312  PHE312     -0.0003
     87  CE2       19.0490   36.8020  152.6790 C.ar  312  PHE312     -0.0003
     88  CZ        18.4990   35.5900  152.2680 C.ar  312  PHE312     -0.0000
     89  N         13.0780   39.6560  154.4550 N.3   314  TYR314     -0.1241
     90  CA        12.1140   38.7910  155.1170 C.3   314  TYR314      0.1605
     91  C         12.2350   38.9470  156.6260 C.2   314  TYR314      0.2264
     92  O         13.0870   39.6900  157.1190 O.2   314  TYR314     -0.2867
     93  CB        12.3700   37.3300  154.7440 C.3   314  TYR314      0.0534
     94  CG        13.7450   36.8440  155.1440 C.ar  314  TYR314     -0.0201
     95  CD1       14.8740   37.2020  154.4060 C.ar  314  TYR314     -0.0009
     96  CD2       13.9200   36.0490  156.2770 C.ar  314  TYR314     -0.0009
     97  CE1       16.1490   36.7810  154.7890 C.ar  314  TYR314      0.0417
     98  CE2       15.1880   35.6240  156.6700 C.ar  314  TYR314      0.0417
     99  CZ        16.2970   35.9930  155.9210 C.ar  314  TYR314      0.1957
    100  OH        17.5510   35.5720  156.3020 O.3   314  TYR314     -0.2866
    101  N          8.3190   32.4010  154.9840 N.3   327  ARG327     -0.1245
    102  CA         9.4190   33.2140  154.4780 C.3   327  ARG327      0.1563
    103  C          9.4340   33.2710  152.9480 C.2   327  ARG327      0.2260
    104  O          9.7960   34.2930  152.3570 O.2   327  ARG327     -0.2867
    105  CB        10.7550   32.6630  154.9970 C.3   327  ARG327      0.0307
    106  CG        11.9780   33.2930  154.3550 C.3   327  ARG327      0.0489
    107  CD        13.2560   32.7800  154.9870 C.3   327  ARG327      0.2205
    108  NE        14.4350   33.2040  154.2460 N.pl3 327  ARG327     -0.0865
    109  CZ        15.6840   32.9850  154.6470 C.cat 327  ARG327      0.5346
    110  NH1       15.9150   32.3470  155.7880 N.pl3 327  ARG327      0.1354
    111  NH2       16.7010   33.4000  153.9080 N.pl3 327  ARG327      0.1354
    112  N         16.9600   36.9790  144.1170 N.3   351  LYS351     -0.1245
    113  CA        17.6420   35.6900  144.0090 C.3   351  LYS351      0.1561
    114  C         16.8060   34.7620  143.1340 C.2   351  LYS351      0.2260
    115  O         15.5930   34.9510  143.0060 O.2   351  LYS351     -0.2867
    116  CB        17.8480   35.0700  145.3980 C.3   351  LYS351      0.0271
    117  CG        18.8250   35.8510  146.2680 C.3   351  LYS351      0.0035
    118  CD        19.1480   35.1360  147.5740 C.3   351  LYS351      0.0206
    119  CE        20.1860   35.9160  148.3680 C.3   351  LYS351      0.1093
    120  NZ        20.6060   35.1880  149.6020 N.3   351  LYS351     -0.1314
    121  N         16.8790   30.9340  149.8920 N.3   356  ASP356     -0.1239
    122  CA        18.2780   31.3500  149.9600 C.3   356  ASP356      0.1674
    123  C         19.2960   30.4370  149.2820 C.2   356  ASP356      0.2266
    124  O         20.0280   29.7030  149.9460 O.2   356  ASP356     -0.2867
    125  CB        18.6840   31.5800  151.4230 C.3   356  ASP356      0.1410
    126  CG        20.1260   32.0590  151.5710 C.2   356  ASP356      0.3668
    127  OD1       20.6600   32.6840  150.6240 O.co2 356  ASP356     -0.2456
    128  OD2       20.7220   31.8230  152.6490 O.co2 356  ASP356     -0.2456
    129  N         27.8550   28.2310  148.4360 N.3   384  GLU384     -0.1231
    130  CA        27.5010   28.2340  149.8540 C.3   384  GLU384      0.1699
    131  C         26.7500   26.9870  150.3050 C.2   384  GLU384      0.2592
    132  O         27.1490   26.3330  151.2660 O.2   384  GLU384     -0.2718
    133  CB        26.6690   29.4680  150.2050 C.3   384  GLU384      0.0402
    134  CG        26.2720   29.5120  151.6770 C.3   384  GLU384      0.1161
    135  CD        25.5900   30.8090  152.0740 C.2   384  GLU384      0.3649
    136  OE1       25.4210   31.6920  151.2040 O.co2 384  GLU384     -0.2457
    137  OE2       25.2230   30.9390  153.2610 O.co2 384  GLU384     -0.2457
    138  N         25.6620   26.6640  149.6180 N.am  385  TYR385     -0.1976
    139  CA        24.8620   25.4950  149.9730 C.3   385  TYR385      0.1639
    140  C         25.0310   24.3850  148.9510 C.2   385  TYR385      0.2290
    141  O         24.3360   23.3680  149.0150 O.2   385  TYR385     -0.2864
    142  CB        23.3840   25.8780  150.0510 C.3   385  TYR385      0.0560
    143  CG        23.0750   26.9570  151.0670 C.ar  385  TYR385     -0.0198
    144  CD1       23.0120   26.6640  152.4300 C.ar  385  TYR385     -0.0009
    145  CD2       22.8210   28.2690  150.6620 C.ar  385  TYR385     -0.0009
    146  CE1       22.6950   27.6490  153.3670 C.ar  385  TYR385      0.0417
    147  CE2       22.5090   29.2620  151.5940 C.ar  385  TYR385      0.0417
    148  CZ        22.4450   28.9440  152.9420 C.ar  385  TYR385      0.1957
    149  OH        22.1170   29.9170  153.8670 O.3   385  TYR385     -0.2866
    150  N         17.7700   23.1140  152.7620 N.3   512  TRP512     -0.1241
    151  CA        18.4580   23.1670  154.0470 C.3   512  TRP512      0.1605
    152  C         19.0450   21.8570  154.5750 C.2   512  TRP512      0.2264
    153  O         19.7610   21.1760  153.8490 O.2   512  TRP512     -0.2867
    154  CB        17.5310   23.8280  155.0790 C.3   512  TRP512      0.0550
    155  CG        17.0010   25.1290  154.5350 C.ar  512  TRP512      0.0003
    156  CD1       15.8580   25.3090  153.8050 C.ar  512  TRP512      0.0946
    157  CD2       17.6850   26.3900  154.5190 C.ar  512  TRP512      0.0152
    158  NE1       15.7960   26.5990  153.3260 N.ar  512  TRP512     -0.2442
    159  CE2       16.9050   27.2820  153.7500 C.ar  512  TRP512      0.0810
    160  CE3       18.8870   26.8490  155.0760 C.ar  512  TRP512      0.0012
    161  CZ2       17.2890   28.6120  153.5230 C.ar  512  TRP512      0.0191
    162  CZ3       19.2700   28.1730  154.8490 C.ar  512  TRP512      0.0001
    163  CH2       18.4700   29.0350  154.0780 C.ar  512  TRP512      0.0015
    164  N         25.2720   28.3190  160.6780 N.3   517  GLY517     -0.1225
    165  CA        26.4740   29.1290  160.6540 C.3   517  GLY517      0.1811
    166  C         27.2910   29.0220  159.3850 C.2   517  GLY517      0.2280
    167  O         27.1230   29.8330  158.4800 O.2   517  GLY517     -0.2866
    168  N         27.1560   26.5600  157.2650 N.3   519  HIS519     -0.1241
    169  CA        26.3110   25.9320  156.2490 C.3   519  HIS519      0.1621
    170  C         26.8730   24.7640  155.4530 C.2   519  HIS519      0.2264
    171  O         26.3270   24.4140  154.4030 O.2   519  HIS519     -0.2867
    172  CB        25.8280   27.0120  155.2790 C.3   519  HIS519      0.0745
    173  CG        25.0100   28.0770  155.9380 C.ar  519  HIS519      0.0817
    174  ND1       24.7780   29.3060  155.3590 N.ar  519  HIS519     -0.2268
    175  CD2       24.3660   28.0940  157.1300 C.ar  519  HIS519      0.1154
    176  CE1       24.0280   30.0350  156.1670 C.ar  519  HIS519      0.1986
    177  NE2       23.7650   29.3240  157.2480 N.ar  519  HIS519     -0.2212
    178  N         18.4540   24.1420  161.4470 N.3   527  TYR527     -0.1241
    179  CA        17.6850   25.3740  161.6060 C.3   527  TYR527      0.1605
    180  C         16.2000   25.0920  161.8330 C.2   527  TYR527      0.2264
    181  O         15.3800   26.0130  161.7860 O.2   527  TYR527     -0.2867
    182  CB        17.8260   26.2430  160.3490 C.3   527  TYR527      0.0534
    183  CG        19.1390   26.9880  160.2080 C.ar  527  TYR527     -0.0201
    184  CD1       19.4960   27.9860  161.1130 C.ar  527  TYR527     -0.0009
    185  CD2       19.9990   26.7290  159.1410 C.ar  527  TYR527     -0.0009
    186  CE1       20.6710   28.7140  160.9580 C.ar  527  TYR527      0.0417
    187  CE2       21.1820   27.4490  158.9750 C.ar  527  TYR527      0.0417
    188  CZ        21.5090   28.4430  159.8900 C.ar  527  TYR527      0.1957
    189  OH        22.6620   29.1690  159.7370 O.3   527  TYR527     -0.2866
    190  N         14.7820   31.5620  161.5440 N.3   532  TRP532     -0.1241
    191  CA        15.0370   31.9220  160.1510 C.3   532  TRP532      0.1605
    192  C         13.9590   31.5190  159.1480 C.2   532  TRP532      0.2264
    193  O         14.0900   31.8000  157.9560 O.2   532  TRP532     -0.2867
    194  CB        16.3840   31.3600  159.6900 C.3   532  TRP532      0.0550
    195  CG        17.5570   31.9390  160.4080 C.ar  532  TRP532      0.0003
    196  CD1       18.2560   31.3680  161.4320 C.ar  532  TRP532      0.0946
    197  CD2       18.1780   33.2060  160.1550 C.ar  532  TRP532      0.0152
    198  NE1       19.2760   32.1980  161.8290 N.ar  532  TRP532     -0.2442
    199  CE2       19.2500   33.3340  161.0630 C.ar  532  TRP532      0.0810
    200  CE3       17.9310   34.2460  159.2480 C.ar  532  TRP532      0.0012
    201  CZ2       20.0790   34.4640  161.0930 C.ar  532  TRP532      0.0191
    202  CZ3       18.7540   35.3690  159.2770 C.ar  532  TRP532      0.0001
    203  CH2       19.8150   35.4670  160.1950 C.ar  532  TRP532      0.0015
    204  N         13.1370   28.5650  158.0220 N.3   534  THR534     -0.1218
    205  CA        13.5770   27.5080  157.1150 C.3   534  THR534      0.1862
    206  C         13.3140   26.1610  157.7790 C.2   534  THR534      0.2287
    207  O         14.2050   25.5820  158.4070 O.2   534  THR534     -0.2866
    208  CB        15.0750   27.6560  156.8230 C.3   534  THR534      0.1770
    209  OG1       15.8070   27.6050  158.0540 O.3   534  THR534     -0.2211
    210  CG2       15.3470   28.9920  156.1550 C.3   534  THR534      0.0375
@<TRIPOS>BOND
     1   115   114    2
     2   114   113    1
     3   113   112    1
     4   113   116    1
     5   116   117    1
     6   117   118    1
     7    67    68    1
     8    68    69    1
     9    68    71    1
    10    72    71    1
    11    72    73    1
    12    69    70    2
    13   118   119    1
    14    74    73    1
    15    74    75    2
    16     1     2    1
    17     9     7   ar
    18     9    10   ar
    19     7     6   ar
    20    48    47    1
    21   119   120    1
    22   129   130    1
    23    77    75    1
    24    10    12   ar
    25    10     8   ar
    26    12    14   ar
    27    75    76    1
    28    78    79    1
    29   140   141    2
    30   140   139    1
    31     6     8   ar
    32     6     5    1
    33     2     5    1
    34     2     3    1
    35     8    11   ar
    36   123   124    2
    37   123   122    1
    38    14    13   ar
    39   138   139    1
    40   138   131   am
    41    27    26    2
    42    47    44    1
    43    47    49    1
    44    35    36    1
    45   130   133    1
    46   130   131    1
    47   121   122    1
    48    79    82    1
    49    79    80    1
    50     3     4    2
    51    82    83    1
    52   122   125    1
    53    11    13   ar
    54   139   142    1
    55   142   143    1
    56   133   134    1
    57    43    44    1
    58    43    37   am
    59   131   132    2
    60    58    59    1
    61    84    83   ar
    62    84    86   ar
    63    44    45    1
    64    36    37    1
    65    36    39    1
    66    37    38    2
    67   127   126   ar
    68   145   143   ar
    69   145   147   ar
    70    83    85   ar
    71    26    25    1
    72   143   144   ar
    73    86    88   ar
    74    18    17    2
    75    59    62    1
    76    59    60    1
    77   136   135   ar
    78    80    81    2
    79    28    25    1
    80    28    29    1
    81   125   126    1
    82   126   128   ar
    83   147   148   ar
    84    62    63    1
    85   134   135    1
    86    39    40    1
    87    45    46    2
    88    45    50   am
    89    85    87   ar
    90    41    40    2
    91    25    24    1
    92   135   137   ar
    93    88    87   ar
    94    17    24   am
    95    17    16    1
    96    60    61    2
    97   104   103    2
    98    29    30    1
    99   144   146   ar
   100    40    42   am
   101    63    64    1
   102    15    16    1
   103    50    51    1
   104   150   151    1
   105   148   146   ar
   106   148   149    1
   107   103   102    1
   108    64    65    1
   109    16    19    1
   110   158   159   ar
   111   158   156   ar
   112   161   159   ar
   113   161   163   ar
   114    19    20    1
   115    30    31    1
   116   159   157   ar
   117   156   155   ar
   118   153   152    2
   119   111   109    1
   120    65    66    1
   121   151   152    1
   122   151   154    1
   123   163   162   ar
   124    51    52    1
   125    51    54    1
   126   108   109    2
   127   108   107    1
   128    20    21    1
   129   106   107    1
   130   106   105    1
   131   171   170    2
   132    52    53    2
   133    95    97   ar
   134    95    94   ar
   135    89    90    1
   136   102   101    1
   137   102   105    1
   138   157   155   ar
   139   157   160   ar
   140   155   154    1
   141    31    32    2
   142   109   110    1
   143    93    90    1
   144    93    94    1
   145    97    99   ar
   146   162   160   ar
   147    57    55   am
   148    21    22   ar
   149    21    23   ar
   150    55    54    1
   151    55    56    2
   152    90    91    1
   153    94    96   ar
   154   172   173    1
   155   172   169    1
   156   174   173   ar
   157   174   176   ar
   158   170   169    1
   159    32    33    1
   160    32    34    1
   161    99   100    1
   162    99    98   ar
   163   173   175   ar
   164   210   208    1
   165   176   177   ar
   166   169   168    1
   167    96    98   ar
   168    91    92    2
   169   208   205    1
   170   208   209    1
   171   205   206    1
   172   205   204    1
   173   175   177   ar
   174   206   207    2
   175   193   192    2
   176   167   166    2
   177   187   185   ar
   178   187   188   ar
   179   185   183   ar
   180   192   191    1
   181   200   202   ar
   182   200   197   ar
   183   202   203   ar
   184   166   165    1
   185   194   191    1
   186   194   195    1
   187   189   188    1
   188   188   186   ar
   189   191   190    1
   190   197   195   ar
   191   197   199   ar
   192   203   201   ar
   193   183   182    1
   194   183   184   ar
   195   182   179    1
   196   195   196   ar
   197   165   164    1
   198   186   184   ar
   199   199   201   ar
   200   199   198   ar
   201   196   198   ar
   202   178   179    1
   203   179   180    1
   204   181   180    2
