@<TRIPOS>MOLECULE
tmp/1k9iG00.pdb
 104 97 0 0 0
SMALL
GASTEIGER

@<TRIPOS>ATOM
      1  N         55.6630   25.9570   43.0850 N.3    59  PHE59      -0.1241
      2  CA        55.1940   25.8000   41.7120 C.3    59  PHE59       0.1605
      3  C         56.3130   26.2110   40.7640 C.2    59  PHE59       0.2264
      4  O         56.8260   27.3260   40.8270 O.2    59  PHE59      -0.2867
      5  CB        53.9310   26.6220   41.5150 C.3    59  PHE59       0.0534
      6  CG        52.8530   26.2640   42.4900 C.ar   59  PHE59      -0.0203
      7  CD1       52.6310   27.0430   43.6250 C.ar   59  PHE59      -0.0042
      8  CD2       52.1110   25.0950   42.3230 C.ar   59  PHE59      -0.0042
      9  CE1       51.6840   26.6580   44.5840 C.ar   59  PHE59      -0.0003
     10  CE2       51.1680   24.7070   43.2740 C.ar   59  PHE59      -0.0003
     11  CZ        50.9560   25.4900   44.4070 C.ar   59  PHE59      -0.0000
     12  N         48.4800   16.2140   36.9250 N.3    90  ASN90      -0.1225
     13  CA        47.6800   16.0360   38.1250 C.3    90  ASN90       0.1785
     14  C         46.2990   15.6840   37.5710 C.2    90  ASN90       0.2597
     15  O         46.0890   15.7660   36.3590 O.2    90  ASN90      -0.2718
     16  CB        47.5890   17.3390   38.9230 C.3    90  ASN90       0.1169
     17  CG        48.8820   17.6880   39.6290 C.2    90  ASN90       0.2627
     18  OD1       49.5890   16.8180   40.0880 O.2    90  ASN90      -0.2716
     19  ND2       49.1740   18.9750   39.7440 N.am   90  ASN90      -0.0877
     20  N         45.3600   15.3020   38.4310 N.am   91  ARG91      -0.1979
     21  CA        44.0200   14.9580   37.9540 C.3    91  ARG91       0.1597
     22  C         43.2890   16.1640   37.3660 C.2    91  ARG91       0.2287
     23  O         43.3120   17.2580   37.9360 O.2    91  ARG91      -0.2864
     24  CB        43.1750   14.3730   39.0800 C.3    91  ARG91       0.0334
     25  CG        41.7360   14.1280   38.6610 C.3    91  ARG91       0.0492
     26  CD        40.8670   13.7310   39.8290 C.3    91  ARG91       0.2205
     27  NE        41.0760   12.3420   40.2240 N.pl3  91  ARG91      -0.0865
     28  CZ        40.4730   11.7790   41.2650 C.cat  91  ARG91       0.5346
     29  NH1       39.6360   12.4950   42.0030 N.pl3  91  ARG91       0.1354
     30  NH2       40.7000   10.5060   41.5650 N.pl3  91  ARG91       0.1354
     31  N         44.0820   17.7860   34.7830 N.3    93  GLU93      -0.1245
     32  CA        44.9910   18.5860   33.9730 C.3    93  GLU93       0.1567
     33  C         45.4180   17.7560   32.7600 C.2    93  GLU93       0.2260
     34  O         45.4220   16.5290   32.8140 O.2    93  GLU93      -0.2867
     35  CB        46.2400   18.9630   34.7790 C.3    93  GLU93       0.0388
     36  CG        46.0050   19.4260   36.2170 C.3    93  GLU93       0.1160
     37  CD        45.1940   20.7250   36.3290 C.2    93  GLU93       0.3649
     38  OE1       44.9660   21.3970   35.2960 O.co2  93  GLU93      -0.2457
     39  OE2       44.7980   21.0740   37.4660 O.co2  93  GLU93      -0.2457
     40  N         43.8510   21.3560   31.8660 N.3    95  ASN95      -0.1240
     41  CA        42.4900   21.8510   31.6640 C.3    95  ASN95       0.1653
     42  C         42.3470   23.1980   30.9640 C.2    95  ASN95       0.2266
     43  O         41.2320   23.6380   30.6710 O.2    95  ASN95      -0.2867
     44  CB        41.7200   21.8910   32.9920 C.3    95  ASN95       0.1155
     45  CG        42.4410   22.6700   34.0880 C.2    95  ASN95       0.2627
     46  OD1       43.2360   23.5790   33.8260 O.2    95  ASN95      -0.2716
     47  ND2       42.1380   22.3250   35.3310 N.am   95  ASN95      -0.0877
     48  N         42.2090   26.2180   31.8630 N.3    97  VAL97      -0.1245
     49  CA        41.2680   27.2000   32.4130 C.3    97  VAL97       0.1561
     50  C         41.7340   28.6420   32.2210 C.2    97  VAL97       0.2260
     51  O         42.7700   29.0510   32.7480 O.2    97  VAL97      -0.2867
     52  CB        40.9790   26.9550   33.9110 C.3    97  VAL97       0.0252
     53  CG1       39.8690   25.9470   34.0460 C.3    97  VAL97       0.0019
     54  CG2       42.2260   26.4590   34.6260 C.3    97  VAL97       0.0019
     55  N         45.5580   28.3180   29.5880 N.3   100  GLU100     -0.1245
     56  CA        46.8290   28.0280   30.2200 C.3   100  GLU100      0.1567
     57  C         47.6230   27.2350   29.1940 C.2   100  GLU100      0.2260
     58  O         47.2290   26.1280   28.8200 O.2   100  GLU100     -0.2867
     59  CB        46.5990   27.1810   31.4660 C.3   100  GLU100      0.0388
     60  CG        45.5450   27.7530   32.3750 C.3   100  GLU100      0.1160
     61  CD        45.3620   26.9460   33.6390 C.2   100  GLU100      0.3649
     62  OE1       45.0570   25.7370   33.5340 O.co2 100  GLU100     -0.2457
     63  OE2       45.5230   27.5280   34.7340 O.co2 100  GLU100     -0.2457
     64  N         50.7940   20.5640   36.0180 N.3   111  ASN111     -0.1225
     65  CA        49.6010   21.3610   35.8210 C.3   111  ASN111      0.1785
     66  C         49.8920   22.4160   34.7730 C.2   111  ASN111      0.2597
     67  O         51.0320   22.8790   34.6570 O.2   111  ASN111     -0.2718
     68  CB        49.1830   22.0620   37.1110 C.3   111  ASN111      0.1169
     69  CG        48.1060   23.1110   36.8690 C.2   111  ASN111      0.2627
     70  OD1       47.0760   22.8310   36.2430 O.2   111  ASN111     -0.2716
     71  ND2       48.3400   24.3210   37.3540 N.am  111  ASN111     -0.0877
     72  N         48.8730   22.7820   33.9990 N.am  112  ASP112     -0.1960
     73  CA        49.0390   23.8310   33.0120 C.3   112  ASP112      0.1840
     74  C         48.5400   25.1520   33.6280 C.2   112  ASP112      0.2622
     75  O         47.5400   25.1710   34.3520 O.2   112  ASP112     -0.2715
     76  CB        48.2780   23.4930   31.7260 C.3   112  ASP112      0.1450
     77  CG        46.7930   23.2610   31.9470 C.2   112  ASP112      0.3671
     78  OD1       46.4010   22.7150   32.9960 O.co2 112  ASP112     -0.2456
     79  OD2       46.0120   23.6010   31.0440 O.co2 112  ASP112     -0.2456
     80  N         49.2690   26.2400   33.3750 N.am  113  ASP113     -0.1957
     81  CA        48.8940   27.5490   33.8990 C.3   113  ASP113      0.1840
     82  C         49.2070   28.6540   32.8970 C.2   113  ASP113      0.2621
     83  O         49.8030   28.3970   31.8530 O.2   113  ASP113     -0.2715
     84  CB        49.6230   27.8510   35.2130 C.3   113  ASP113      0.1450
     85  CG        48.7790   28.6970   36.1590 C.2   113  ASP113      0.3671
     86  OD1       47.9420   29.4770   35.6540 O.co2 113  ASP113     -0.2456
     87  OD2       48.9500   28.5830   37.3980 O.co2 113  ASP113     -0.2456
     88  N         48.7980   29.8800   33.2250 N.am  114  LYS114     -0.1977
     89  CA        49.0360   31.0400   32.3700 C.3   114  LYS114      0.1596
     90  C         50.5170   31.3750   32.2830 C.2   114  LYS114      0.2287
     91  O         51.1820   31.6310   33.2950 O.2   114  LYS114     -0.2864
     92  CB        48.2740   32.2580   32.8890 C.3   114  LYS114      0.0298
     93  CG        46.7660   32.0790   32.9080 C.3   114  LYS114      0.0038
     94  CD        46.3520   31.0540   33.9550 C.3   114  LYS114      0.0206
     95  CE        44.8480   30.9450   34.0640 C.3   114  LYS114      0.1093
     96  NZ        44.2550   32.3040   34.1800 N.3   114  LYS114     -0.1314
     97  N         52.2350   34.2930   34.2500 N.3   117  LEU117     -0.1245
     98  CA        52.4400   34.2540   35.6940 C.3   117  LEU117      0.1561
     99  C         53.8920   33.8970   36.0050 C.2   117  LEU117      0.2260
    100  O         54.4670   33.0000   35.3780 O.2   117  LEU117     -0.2867
    101  CB        51.5230   33.2160   36.3340 C.3   117  LEU117      0.0270
    102  CG        50.0170   33.4630   36.2540 C.3   117  LEU117      0.0019
    103  CD1       49.2720   32.2760   36.8570 C.3   117  LEU117      0.0001
    104  CD2       49.6760   34.7500   36.9950 C.3   117  LEU117      0.0001
@<TRIPOS>BOND
     1    58    57    2
     2    57    56    1
     3    55    56    1
     4    56    59    1
     5    43    42    2
     6    42    41    1
     7    79    77   ar
     8    59    60    1
     9    41    40    1
    10    41    44    1
    11    76    77    1
    12    76    73    1
    13    83    82    2
    14    48    49    1
    15    77    78   ar
    16    50    49    1
    17    50    51    2
    18    90    89    1
    19    90    91    2
    20    89    92    1
    21    89    88    1
    22    60    61    1
    23    49    52    1
    24    33    34    2
    25    33    32    1
    26    92    93    1
    27    82    88   am
    28    82    81    1
    29    93    94    1
    30    44    45    1
    31    73    74    1
    32    73    72    1
    33    80    74   am
    34    80    81    1
    35    62    61   ar
    36    74    75    2
    37    61    63   ar
    38    46    45    2
    39    81    84    1
    40    52    53    1
    41    52    54    1
    42    94    95    1
    43    32    35    1
    44    32    31    1
    45    72    66   am
    46    95    96    1
    47    45    47   am
    48    97    98    1
    49    67    66    2
    50    66    65    1
    51    35    36    1
    52    84    85    1
    53    38    37   ar
    54   100    99    2
    55    86    85   ar
    56    98    99    1
    57    98   101    1
    58    65    64    1
    59    65    68    1
    60    85    87   ar
    61    36    37    1
    62    70    69    2
    63   102   101    1
    64   102   103    1
    65   102   104    1
    66    37    39   ar
    67    15    14    2
    68    69    68    1
    69    69    71   am
    70    12    13    1
    71    22    23    2
    72    22    21    1
    73    14    13    1
    74    14    20   am
    75    21    20    1
    76    21    24    1
    77    13    16    1
    78    25    24    1
    79    25    26    1
    80    16    17    1
    81    17    19   am
    82    17    18    2
    83    26    27    1
    84    27    28    2
    85     3     4    2
    86     3     2    1
    87    28    30    1
    88    28    29    1
    89     5     2    1
    90     5     6    1
    91     2     1    1
    92     8     6   ar
    93     8    10   ar
    94     6     7   ar
    95    10    11   ar
    96     7     9   ar
    97    11     9   ar
