@<TRIPOS>MOLECULE
tmp/1k9sE00.pdb
 146 138 0 0 0
SMALL
GASTEIGER

@<TRIPOS>ATOM
      1  N        117.8740  106.0330   34.0750 N.3    20  GLY20      -0.1225
      2  CA       119.0950  105.2680   33.8770 C.3    20  GLY20       0.1811
      3  C        119.8650  105.7230   32.6440 C.2    20  GLY20       0.2280
      4  O        121.0960  105.7170   32.6280 O.2    20  GLY20      -0.2866
      5  N        117.9660  110.2160   28.3450 N.3    24  ARG24      -0.1245
      6  CA       116.6520  110.5340   28.9120 C.3    24  ARG24       0.1563
      7  C        116.8280  111.7310   29.8440 C.2    24  ARG24       0.2260
      8  O        115.9290  112.5430   29.9950 O.2    24  ARG24      -0.2867
      9  CB       116.0340  109.3420   29.6800 C.3    24  ARG24       0.0307
     10  CG       115.0320  108.5100   28.8480 C.3    24  ARG24       0.0489
     11  CD       114.3750  107.3240   29.6380 C.3    24  ARG24       0.2205
     12  NE       115.3960  106.5280   30.3440 N.pl3  24  ARG24      -0.0865
     13  CZ       115.2230  105.3180   30.8850 C.cat  24  ARG24       0.5346
     14  NH1      114.0580  104.6820   30.8360 N.pl3  24  ARG24       0.1354
     15  NH2      116.2420  104.7430   31.4780 N.pl3  24  ARG24       0.1354
     16  N        121.9440  107.5100   35.6930 N.3    62  HIS62      -0.1226
     17  CA       122.6990  106.7290   36.6820 C.3    62  HIS62       0.1752
     18  C        123.3010  105.4390   36.0970 C.2    62  HIS62       0.2597
     19  O        124.0450  104.7320   36.7790 O.2    62  HIS62      -0.2718
     20  CB       121.8440  106.4200   37.9430 C.3    62  HIS62       0.0759
     21  CG       120.5750  105.6610   37.6710 C.ar   62  HIS62       0.0818
     22  ND1      120.5470  104.4700   36.9730 N.ar   62  HIS62      -0.2268
     23  CD2      119.2910  105.9120   38.0340 C.ar   62  HIS62       0.1154
     24  CE1      119.3020  104.0230   36.9190 C.ar   62  HIS62       0.1986
     25  NE2      118.5210  104.8780   37.5550 N.ar   62  HIS62      -0.2212
     26  N        123.0180  105.1480   34.8310 N.am   63  GLY63      -0.1942
     27  CA       123.5570  103.9280   34.2330 C.3    63  GLY63       0.2014
     28  C        122.7770  102.6850   34.6670 C.2    63  GLY63       0.2638
     29  O        121.8990  102.7680   35.5270 O.2    63  GLY63      -0.2714
     30  N        123.0970  101.5250   34.0960 N.am   64  MET64      -0.1976
     31  CA       122.3490  100.3120   34.4400 C.3    64  MET64       0.1605
     32  C        122.9650   99.4840   35.5590 C.2    64  MET64       0.2287
     33  O        124.1780   99.2430   35.5620 O.2    64  MET64      -0.2864
     34  CB       122.1840   99.4350   33.1930 C.3    64  MET64       0.0413
     35  CG       121.3490  100.1090   32.1070 C.3    64  MET64       0.0598
     36  SD       120.9940   98.9940   30.7420 S.3    64  MET64      -0.1393
     37  CE       122.6220   98.6580   30.1010 C.3    64  MET64       0.0692
     38  N        114.7170  108.2900   41.5720 N.3    87  ARG87      -0.1245
     39  CA       115.0060  107.5570   40.3610 C.3    87  ARG87       0.1563
     40  C        113.6840  107.4740   39.5970 C.2    87  ARG87       0.2260
     41  O        112.6390  107.1910   40.1910 O.2    87  ARG87      -0.2867
     42  CB       115.5230  106.1450   40.6970 C.3    87  ARG87       0.0307
     43  CG       115.4240  105.1530   39.5300 C.3    87  ARG87       0.0489
     44  CD       116.0890  103.8060   39.8780 C.3    87  ARG87       0.2205
     45  NE       115.4430  102.7080   39.1730 N.pl3  87  ARG87      -0.0865
     46  CZ       115.3910  102.5770   37.8510 C.cat  87  ARG87       0.5346
     47  NH1      115.9640  103.4830   37.0560 N.pl3  87  ARG87       0.1354
     48  NH2      114.7310  101.5600   37.3230 N.pl3  87  ARG87       0.1354
     49  N        112.1210  102.5000   34.2890 N.3    90  SER90      -0.1202
     50  CA       111.1480  101.5940   33.7320 C.3    90  SER90       0.2020
     51  C        111.3200  100.2640   34.4650 C.2    90  SER90       0.2619
     52  O        112.3460  100.0420   35.1230 O.2    90  SER90      -0.2717
     53  CB       111.4140  101.4420   32.2330 C.3    90  SER90       0.2103
     54  OG       112.7430  100.9830   32.0450 O.3    90  SER90      -0.2182
     55  N        110.3050   99.4030   34.3860 N.am   91  CYS91      -0.1955
     56  CA       110.3730   98.0930   35.0250 C.3    91  CYS91       0.1843
     57  C        109.4650   97.1020   34.2920 C.2    91  CYS91       0.2626
     58  O        108.5620   97.5020   33.5470 O.2    91  CYS91      -0.2714
     59  CB       109.9350   98.1730   36.4980 C.3    91  CYS91       0.0997
     60  SG       108.1920   98.6020   36.7000 S.3    91  CYS91      -0.0797
     61  N        109.7220   95.8120   34.4990 N.am   92  GLY92      -0.1954
     62  CA       108.8930   94.7890   33.8980 C.3    92  GLY92       0.1869
     63  C        107.9200   94.3170   34.9680 C.2    92  GLY92       0.2309
     64  O        108.2610   94.3160   36.1460 O.2    92  GLY92      -0.2863
     65  N        117.2290   93.4670   40.1740 N.3   156  ALA156     -0.1245
     66  CA       118.0340   92.3310   39.7460 C.3   156  ALA156      0.1562
     67  C        119.4410   92.7150   39.3120 C.2   156  ALA156      0.2260
     68  O        119.6660   93.8040   38.8040 O.2   156  ALA156     -0.2867
     69  CB       117.3310   91.6220   38.5810 C.3   156  ALA156      0.0290
     70  N        119.9600   90.9460   34.1190 N.3   159  PHE159     -0.1241
     71  CA       118.8350   91.2200   33.2310 C.3   159  PHE159      0.1605
     72  C        118.5370   89.8880   32.5220 C.2   159  PHE159      0.2264
     73  O        117.3800   89.5570   32.2780 O.2   159  PHE159     -0.2867
     74  CB       119.2280   92.2750   32.1930 C.3   159  PHE159      0.0534
     75  CG       118.1100   92.6530   31.2510 C.ar  159  PHE159     -0.0203
     76  CD1      117.2050   93.6540   31.5900 C.ar  159  PHE159     -0.0042
     77  CD2      117.9880   92.0320   30.0160 C.ar  159  PHE159     -0.0042
     78  CE1      116.1750   94.0450   30.6930 C.ar  159  PHE159     -0.0003
     79  CE2      116.9710   92.4080   29.1070 C.ar  159  PHE159     -0.0003
     80  CZ       116.0640   93.4190   29.4500 C.ar  159  PHE159     -0.0000
     81  N        110.8490   84.5080   38.7010 N.3   167  PHE167     -0.1241
     82  CA       109.7070   85.3580   38.3790 C.3   167  PHE167      0.1605
     83  C        108.4470   84.8540   39.0790 C.2   167  PHE167      0.2264
     84  O        107.6370   85.6440   39.5280 O.2   167  PHE167     -0.2867
     85  CB       109.4780   85.4580   36.8550 C.3   167  PHE167      0.0534
     86  CG       110.5350   86.2750   36.1390 C.ar  167  PHE167     -0.0203
     87  CD1      110.9870   87.4770   36.6840 C.ar  167  PHE167     -0.0042
     88  CD2      111.1080   85.8240   34.9570 C.ar  167  PHE167     -0.0042
     89  CE1      112.0010   88.2160   36.0740 C.ar  167  PHE167     -0.0003
     90  CE2      112.1320   86.5600   34.3260 C.ar  167  PHE167     -0.0003
     91  CZ       112.5780   87.7560   34.8910 C.ar  167  PHE167     -0.0000
     92  N        110.0490   94.6890   38.1450 N.3   178  VAL178     -0.1231
     93  CA       111.4140   94.2190   38.1310 C.3   178  VAL178      0.1692
     94  C        112.2820   95.2560   37.4240 C.2   178  VAL178      0.2592
     95  O        112.0260   95.6150   36.2770 O.2   178  VAL178     -0.2718
     96  CB       111.5240   92.9040   37.3520 C.3   178  VAL178      0.0266
     97  CG1      112.9550   92.3750   37.4150 C.3   178  VAL178      0.0020
     98  CG2      110.5260   91.8950   37.9040 C.3   178  VAL178      0.0020
     99  N        113.2860   95.7610   38.1170 N.am  179  GLU179     -0.1966
    100  CA       114.1980   96.7040   37.5050 C.3   179  GLU179      0.1733
    101  C        115.5970   96.3340   38.0110 C.2   179  GLU179      0.2616
    102  O        115.8240   95.1760   38.4000 O.2   179  GLU179     -0.2715
    103  CB       113.7680   98.1580   37.7930 C.3   179  GLU179      0.0429
    104  CG       113.3290   98.4710   39.2260 C.3   179  GLU179      0.1163
    105  CD       114.5050   98.8250   40.1050 C.2   179  GLU179      0.3649
    106  OE1      115.0840   99.9210   39.9160 O.co2 179  GLU179     -0.2457
    107  OE2      114.8680   98.0030   40.9690 O.co2 179  GLU179     -0.2457
    108  N        116.5290   97.2750   38.0510 N.am  180  MET180     -0.1963
    109  CA       117.8860   96.9010   38.4420 C.3   180  MET180      0.1736
    110  C        118.6310   97.8810   39.3370 C.2   180  MET180      0.2616
    111  O        119.8480   97.7610   39.4800 O.2   180  MET180     -0.2715
    112  CB       118.7340   96.6850   37.1710 C.3   180  MET180      0.0427
    113  CG       118.1960   95.6120   36.2300 C.3   180  MET180      0.0599
    114  SD       119.2210   95.4330   34.7490 S.3   180  MET180     -0.1393
    115  CE       120.7960   94.9930   35.4640 C.3   180  MET180      0.0692
    116  N        117.9380   98.8190   39.9690 N.am  181  GLU181     -0.1977
    117  CA       118.6680   99.8130   40.7480 C.3   181  GLU181      0.1602
    118  C        118.1410  100.2270   42.1090 C.2   181  GLU181      0.2287
    119  O        118.9310  100.5900   42.9780 O.2   181  GLU181     -0.2864
    120  CB       118.8070  101.1020   39.9110 C.3   181  GLU181      0.0415
    121  CG       119.6770  100.9930   38.6540 C.3   181  GLU181      0.1163
    122  CD       118.9300  100.5290   37.4110 C.2   181  GLU181      0.3649
    123  OE1      117.6890  100.4440   37.4240 O.co2 181  GLU181     -0.2457
    124  OE2      119.5970  100.2380   36.4000 O.co2 181  GLU181     -0.2457
    125  N        107.1770   99.0810   31.5060 N.3   203  SER203     -0.1202
    126  CA       107.4740   99.1290   30.0820 C.3   203  SER203      0.2020
    127  C        107.3660   97.7770   29.3590 C.2   203  SER203      0.2618
    128  O        107.4490   97.7130   28.1250 O.2   203  SER203     -0.2717
    129  CB       108.8720   99.6960   29.8810 C.3   203  SER203      0.2103
    130  OG       109.8010   98.8790   30.5610 O.3   203  SER203     -0.2182
    131  N        107.2240   96.7000   30.1210 N.am  204  ASP204     -0.1973
    132  CA       107.0700   95.3760   29.5350 C.3   204  ASP204      0.1709
    133  C        106.4180   94.4520   30.5550 C.2   204  ASP204      0.2293
    134  O        106.5580   94.6550   31.7600 O.2   204  ASP204     -0.2864
    135  CB       108.4230   94.8280   29.0520 C.3   204  ASP204      0.1436
    136  CG       109.4440   94.6730   30.1750 C.2   204  ASP204      0.3671
    137  OD1      109.4720   93.5990   30.8120 O.co2 204  ASP204     -0.2456
    138  OD2      110.2190   95.6250   30.4230 O.co2 204  ASP204     -0.2456
    139  N        106.1720   90.5800   31.6710 N.3   206  ILE206     -0.1245
    140  CA       106.7560   89.2580   31.5480 C.3   206  ILE206      0.1561
    141  C        105.7260   88.1790   31.2310 C.2   206  ILE206      0.2260
    142  O        106.0600   87.1850   30.5780 O.2   206  ILE206     -0.2867
    143  CB       107.5390   88.8650   32.8560 C.3   206  ILE206      0.0252
    144  CG1      108.8990   89.5590   32.8890 C.3   206  ILE206      0.0019
    145  CG2      107.7940   87.3820   32.9140 C.3   206  ILE206      0.0019
    146  CD1      108.8440   90.9500   33.4210 C.3   206  ILE206      0.0001
@<TRIPOS>BOND
     1   128   127    2
     2     5     6    1
     3    10    11    1
     4    10     9    1
     5     6     9    1
     6     6     7    1
     7   135   132    1
     8   135   136    1
     9    79    80   ar
    10    79    77   ar
    11   127   126    1
    12   127   131   am
    13    80    78   ar
    14   132   131    1
    15   132   133    1
    16    11    12    1
    17     7     8    2
    18   129   126    1
    19   129   130    1
    20    77    75   ar
    21   126   125    1
    22    37    36    1
    23   136   138   ar
    24   136   137   ar
    25    12    13    2
    26   133   134    2
    27   142   141    2
    28    78    76   ar
    29    36    35    1
    30    14    13    1
    31    13    15    1
    32   141   140    1
    33    75    76   ar
    34    75    74    1
    35   140   139    1
    36   140   143    1
    37    54    53    1
    38    35    34    1
    39    74    71    1
    40    53    50    1
    41    73    72    2
    42    72    71    1
    43     4     3    2
    44     3     2    1
    45   143   144    1
    46   143   145    1
    47   144   146    1
    48    34    31    1
    49    71    70    1
    50    58    57    2
    51    50    49    1
    52    50    51    1
    53     2     1    1
    54    62    61    1
    55    62    63    1
    56    30    31    1
    57    30    28   am
    58    27    28    1
    59    27    26    1
    60    57    61   am
    61    57    56    1
    62    90    91   ar
    63    90    88   ar
    64    55    51   am
    65    55    56    1
    66    31    32    1
    67    51    52    2
    68    28    29    2
    69   114   115    1
    70   114   113    1
    71    26    18   am
    72    91    89   ar
    73    88    86   ar
    74    63    64    2
    75    56    59    1
    76    32    33    2
    77    16    17    1
    78    89    87   ar
    79    18    17    1
    80    18    19    2
    81    86    87   ar
    82    86    85    1
    83   113   112    1
    84    95    94    2
    85   124   122   ar
    86    59    60    1
    87    17    20    1
    88    85    82    1
    89    24    22   ar
    90    24    25   ar
    91    22    21   ar
    92    47    46    1
    93   112   109    1
    94    48    46    1
    95    96    97    1
    96    96    98    1
    97    96    93    1
    98   122   123   ar
    99   122   121    1
   100    94    99   am
   101    94    93    1
   102   100   103    1
   103   100   101    1
   104   100    99    1
   105    25    23   ar
   106    21    20    1
   107    21    23   ar
   108   103   104    1
   109    46    45    2
   110   101   108   am
   111   101   102    2
   112   108   109    1
   113    93    92    1
   114    82    81    1
   115    82    83    1
   116   109   110    1
   117    69    66    1
   118   121   120    1
   119    68    67    2
   120    83    84    2
   121    45    44    1
   122   104   105    1
   123    67    66    1
   124   110   111    2
   125   110   116   am
   126    43    44    1
   127    43    42    1
   128    40    41    2
   129    40    39    1
   130    66    65    1
   131   120   117    1
   132   106   105   ar
   133   116   117    1
   134   105   107   ar
   135    39    42    1
   136    39    38    1
   137   117   118    1
   138   118   119    2
