@<TRIPOS>MOLECULE
tmp/1k9tA01.pdb
 95 92 0 0 0
SMALL
GASTEIGER

@<TRIPOS>ATOM
      1  N         31.6050   28.0200   13.8510 N.3   252  TRP252     -0.1241
      2  CA        31.8950   26.7190   13.2510 C.3   252  TRP252      0.1605
      3  C         33.1730   26.6790   12.4430 C.2   252  TRP252      0.2264
      4  O         33.8710   25.6520   12.5180 O.2   252  TRP252     -0.2867
      5  CB        30.7220   26.2790   12.3500 C.3   252  TRP252      0.0550
      6  CG        30.8050   24.8520   11.8890 C.ar  252  TRP252      0.0003
      7  CD1       30.9760   24.4290   10.5920 C.ar  252  TRP252      0.0946
      8  CD2       30.6980   23.6870   12.6930 C.ar  252  TRP252      0.0152
      9  NE1       30.9860   23.0410   10.5630 N.ar  252  TRP252     -0.2442
     10  CE2       30.8090   22.5640   11.8320 C.ar  252  TRP252      0.0810
     11  CE3       30.5200   23.4540   14.0590 C.ar  252  TRP252      0.0012
     12  CZ2       30.7500   21.2550   12.3080 C.ar  252  TRP252      0.0191
     13  CZ3       30.4670   22.1550   14.5180 C.ar  252  TRP252      0.0001
     14  CH2       30.5820   21.0340   13.6480 C.ar  252  TRP252      0.0015
     15  N         34.1130   26.1950   18.9740 N.3   292  GLU292     -0.1231
     16  CA        33.3790   24.9570   18.7300 C.3   292  GLU292      0.1699
     17  C         34.3360   23.8450   18.3050 C.2   292  GLU292      0.2592
     18  O         34.7540   23.7560   17.1460 O.2   292  GLU292     -0.2718
     19  CB        32.3220   25.2560   17.6210 C.3   292  GLU292      0.0402
     20  CG        31.3850   26.3990   18.0400 C.3   292  GLU292      0.1161
     21  CD        30.1830   26.6510   17.1710 C.2   292  GLU292      0.3649
     22  OE1       29.8350   25.9290   16.2220 O.co2 292  GLU292     -0.2457
     23  OE2       29.4440   27.6620   17.4400 O.co2 292  GLU292     -0.2457
     24  N         34.7390   23.0370   19.2550 N.am  293  PHE293     -0.1976
     25  CA        34.4440   23.0430   20.6460 C.3   293  PHE293      0.1639
     26  C         35.6830   22.4240   21.3790 C.2   293  PHE293      0.2290
     27  O         36.3800   21.6080   20.7820 O.2   293  PHE293     -0.2864
     28  CB        33.3150   22.0640   21.0580 C.3   293  PHE293      0.0560
     29  CG        32.1010   22.1330   20.1930 C.ar  293  PHE293     -0.0200
     30  CD1       31.1190   23.0800   20.4750 C.ar  293  PHE293     -0.0042
     31  CD2       31.9360   21.2530   19.1350 C.ar  293  PHE293     -0.0042
     32  CE1       29.9880   23.1650   19.6560 C.ar  293  PHE293     -0.0003
     33  CE2       30.7990   21.3380   18.3400 C.ar  293  PHE293     -0.0003
     34  CZ        29.8470   22.3020   18.5970 C.ar  293  PHE293     -0.0000
     35  N         28.6630   24.4010   23.4740 N.3   341  SER341     -0.1217
     36  CA        27.7790   23.2860   23.1030 C.3   341  SER341      0.1889
     37  C         26.8290   23.0040   24.2790 C.2   341  SER341      0.2288
     38  O         27.1740   23.1800   25.4470 O.2   341  SER341     -0.2866
     39  CB        28.5790   22.0140   22.8260 C.3   341  SER341      0.2089
     40  OG        27.7260   20.8790   22.6760 O.3   341  SER341     -0.2183
     41  N         24.1760   26.9220   23.5300 N.3   365  MET365     -0.1245
     42  CA        23.6450   26.6900   22.1920 C.3   365  MET365      0.1570
     43  C         22.6870   25.5100   22.1750 C.2   365  MET365      0.2261
     44  O         22.9280   24.4900   21.5450 O.2   365  MET365     -0.2867
     45  CB        24.8190   26.5370   21.2070 C.3   365  MET365      0.0387
     46  CG        25.6430   27.8390   21.0800 C.3   365  MET365      0.0595
     47  SD        26.7960   27.7340   19.6950 S.3   365  MET365     -0.1393
     48  CE        28.0340   26.6180   20.3610 C.3   365  MET365      0.0692
     49  N         20.4170   24.3170   20.4200 N.3   367  TYR367     -0.1227
     50  CA        19.8780   24.1670   19.0820 C.3   367  TYR367      0.1736
     51  C         20.8410   23.2780   18.2940 C.2   367  TYR367      0.2595
     52  O         21.9060   22.9070   18.8350 O.2   367  TYR367     -0.2718
     53  CB        19.5550   25.4870   18.3890 C.3   367  TYR367      0.0548
     54  CG        20.6160   26.5760   18.5410 C.ar  367  TYR367     -0.0200
     55  CD1       21.8220   26.4810   17.8440 C.ar  367  TYR367     -0.0009
     56  CD2       20.4100   27.6570   19.3790 C.ar  367  TYR367     -0.0009
     57  CE1       22.7930   27.4580   17.9860 C.ar  367  TYR367      0.0417
     58  CE2       21.3780   28.6450   19.5170 C.ar  367  TYR367      0.0417
     59  CZ        22.5670   28.5280   18.8020 C.ar  367  TYR367      0.1957
     60  OH        23.4920   29.5350   18.9600 O.3   367  TYR367     -0.2866
     61  N         20.4730   22.8720   17.0970 N.am  368  ALA368     -0.1980
     62  CA        21.2710   21.9440   16.3010 C.3   368  ALA368      0.1597
     63  C         21.4820   20.6230   17.0240 C.2   368  ALA368      0.2287
     64  O         22.4960   19.9380   16.7930 O.2   368  ALA368     -0.2864
     65  CB        22.6180   22.5590   15.9200 C.3   368  ALA368      0.0319
     66  N         22.7890   16.5700    9.2620 N.3   373  PHE373     -0.1241
     67  CA        24.1260   15.9830    9.4510 C.3   373  PHE373      0.1605
     68  C         23.9850   14.5150    9.8570 C.2   373  PHE373      0.2264
     69  O         24.9610   13.7550    9.7900 O.2   373  PHE373     -0.2867
     70  CB        24.9410   16.7520   10.4680 C.3   373  PHE373      0.0534
     71  CG        24.2540   17.1840   11.7300 C.ar  373  PHE373     -0.0203
     72  CD1       24.1340   16.3270   12.7970 C.ar  373  PHE373     -0.0042
     73  CD2       23.7970   18.4970   11.8700 C.ar  373  PHE373     -0.0042
     74  CE1       23.5250   16.6890   13.9760 C.ar  373  PHE373     -0.0003
     75  CE2       23.1900   18.8870   13.0560 C.ar  373  PHE373     -0.0003
     76  CZ        23.0590   18.0000   14.1070 C.ar  373  PHE373     -0.0000
     77  N         15.9760   23.1070   10.9860 N.3   423  ARG423     -0.1245
     78  CA        16.8580   22.1240   10.3130 C.3   423  ARG423      0.1563
     79  C         15.9030   21.0850    9.7460 C.2   423  ARG423      0.2260
     80  O         14.7900   20.8780   10.3010 O.2   423  ARG423     -0.2867
     81  CB        17.8510   21.5170   11.3130 C.3   423  ARG423      0.0307
     82  CG        18.9170   22.5630   11.7040 C.3   423  ARG423      0.0489
     83  CD        19.9460   21.9750   12.6550 C.3   423  ARG423      0.2205
     84  NE        20.9880   23.0030   12.9380 N.pl3 423  ARG423     -0.0865
     85  CZ        22.0700   23.0780   12.1540 C.cat 423  ARG423      0.5346
     86  NH1       22.1900   22.2290   11.1370 N.pl3 423  ARG423      0.1354
     87  NH2       23.0060   23.9640   12.4250 N.pl3 423  ARG423      0.1354
     88  N         18.9650   23.6310    6.1090 N.3   453  ILE453     -0.1245
     89  CA        18.6920   24.7330    7.0570 C.3   453  ILE453      0.1561
     90  C         17.7040   25.6890    6.4240 C.2   453  ILE453      0.2260
     91  O         17.8550   26.0040    5.2400 O.2   453  ILE453     -0.2867
     92  CB        20.0460   25.4230    7.3670 C.3   453  ILE453      0.0252
     93  CG1       20.9430   24.4240    8.1130 C.3   453  ILE453      0.0019
     94  CG2       19.8280   26.6760    8.1940 C.3   453  ILE453      0.0019
     95  CD1       22.2760   25.0310    8.5360 C.3   453  ILE453      0.0001
@<TRIPOS>BOND
     1    91    90    2
     2    88    89    1
     3    90    89    1
     4    89    92    1
     5    92    93    1
     6    92    94    1
     7    93    95    1
     8    66    67    1
     9    67    68    1
    10    67    70    1
    11    79    80    2
    12    79    78    1
    13    69    68    2
    14    78    77    1
    15    78    81    1
    16    70    71    1
    17     9     7   ar
    18     9    10   ar
    19     7     6   ar
    20    86    85    1
    21    81    82    1
    22    82    83    1
    23    71    73   ar
    24    71    72   ar
    25    10    12   ar
    26    10     8   ar
    27    73    75   ar
    28     6     5    1
    29     6     8   ar
    30    85    87    1
    31    85    84    2
    32    12    14   ar
    33     5     2    1
    34     3     4    2
    35     3     2    1
    36    83    84    1
    37     8    11   ar
    38    72    74   ar
    39    75    76   ar
    40     2     1    1
    41    14    13   ar
    42    74    76   ar
    43    11    13   ar
    44    65    62    1
    45    22    21   ar
    46    62    63    1
    47    62    61    1
    48    64    63    2
    49    61    51   am
    50    18    17    2
    51    21    23   ar
    52    21    20    1
    53    19    20    1
    54    19    16    1
    55    55    57   ar
    56    55    54   ar
    57    57    59   ar
    58    51    52    2
    59    51    50    1
    60    17    16    1
    61    17    24   am
    62    33    34   ar
    63    33    31   ar
    64    53    54    1
    65    53    50    1
    66    54    56   ar
    67    34    32   ar
    68    16    15    1
    69    59    60    1
    70    59    58   ar
    71    50    49    1
    72    31    29   ar
    73    24    25    1
    74    56    58   ar
    75    32    30   ar
    76    47    48    1
    77    47    46    1
    78    29    30   ar
    79    29    28    1
    80    25    28    1
    81    25    26    1
    82    27    26    2
    83    46    45    1
    84    45    42    1
    85    44    43    2
    86    43    42    1
    87    42    41    1
    88    40    39    1
    89    39    36    1
    90    36    35    1
    91    36    37    1
    92    37    38    2
