@<TRIPOS>MOLECULE
tmp/1k9yA00.pdb
 190 180 0 0 0
SMALL
GASTEIGER

@<TRIPOS>ATOM
      1  N          8.1810   23.7020  -33.6270 N.3    40  ASP40      -0.1239
      2  CA         9.4550   23.1070  -33.9300 C.3    40  ASP40       0.1674
      3  C          9.2610   21.7810  -34.6480 C.2    40  ASP40       0.2266
      4  O         10.2030   21.0180  -34.7620 O.2    40  ASP40      -0.2867
      5  CB        10.3080   22.9390  -32.6790 C.3    40  ASP40       0.1410
      6  CG         9.6850   22.0040  -31.6800 C.2    40  ASP40       0.3668
      7  OD1        8.5780   21.4800  -31.9490 O.co2  40  ASP40      -0.2456
      8  OD2       10.2280   21.7420  -30.5890 O.co2  40  ASP40      -0.2456
      9  N          7.6480   19.1840  -33.6440 N.3    42  SER42      -0.1217
     10  CA         7.5690   17.9970  -32.7890 C.3    42  SER42       0.1889
     11  C          6.1230   17.6710  -32.5190 C.2    42  SER42       0.2288
     12  O          5.2740   18.5630  -32.5350 O.2    42  SER42      -0.2866
     13  CB         8.3030   18.2450  -31.4450 C.3    42  SER42       0.2089
     14  OG         7.7190   19.3420  -30.7400 O.3    42  SER42      -0.2183
     15  N          5.7880   21.4330  -20.1070 N.3    71  GLU71      -0.1245
     16  CA         6.1380   21.4890  -21.5170 C.3    71  GLU71       0.1567
     17  C          5.0530   22.0990  -22.3990 C.2    71  GLU71       0.2260
     18  O          5.3620   22.8270  -23.3230 O.2    71  GLU71      -0.2867
     19  CB         6.5080   20.1050  -22.0700 C.3    71  GLU71       0.0388
     20  CG         6.8700   20.1340  -23.5540 C.3    71  GLU71       0.1160
     21  CD         7.1040   18.7700  -24.1620 C.2    71  GLU71       0.3649
     22  OE1        7.1040   17.7490  -23.4440 O.co2  71  GLU71      -0.2457
     23  OE2        7.3070   18.7350  -25.3870 O.co2  71  GLU71      -0.2457
     24  N          7.1890   17.2140  -17.5290 N.3   141  ASP141     -0.1239
     25  CA         7.0720   16.7040  -18.9170 C.3   141  ASP141      0.1674
     26  C          5.9730   15.6640  -18.8480 C.2   141  ASP141      0.2266
     27  O          6.1920   14.5470  -18.3410 O.2   141  ASP141     -0.2867
     28  CB         8.3860   16.0530  -19.3530 C.3   141  ASP141      0.1410
     29  CG         8.4330   15.8030  -20.8430 C.2   141  ASP141      0.3668
     30  OD1        7.3190   15.7690  -21.4250 O.co2 141  ASP141     -0.2456
     31  OD2        9.5250   15.6680  -21.4470 O.co2 141  ASP141     -0.2456
     32  N          7.1770   12.4400  -21.7350 N.3   144  ASP144     -0.1225
     33  CA         8.5350   12.5440  -22.2620 C.3   144  ASP144      0.1805
     34  C          8.7400   11.3630  -23.2310 C.2   144  ASP144      0.2598
     35  O          8.3460   10.2720  -22.9470 O.2   144  ASP144     -0.2718
     36  CB         9.5480   12.5410  -21.1440 C.3   144  ASP144      0.1424
     37  CG        10.9590   12.6740  -21.6700 C.2   144  ASP144      0.3668
     38  OD1       11.1270   13.5060  -22.5810 O.co2 144  ASP144     -0.2456
     39  OD2       11.9030   11.9760  -21.2440 O.co2 144  ASP144     -0.2456
     40  N          9.2640   11.6150  -24.4170 N.am  145  GLY145     -0.1942
     41  CA         9.3380   10.5730  -25.4170 C.3   145  GLY145      0.2014
     42  C          8.0300   10.3990  -26.1970 C.2   145  GLY145      0.2639
     43  O          7.6480    9.3090  -26.5080 O.2   145  GLY145     -0.2714
     44  N          7.3910   11.4980  -26.5670 N.am  146  THR146     -0.1950
     45  CA         6.1580   11.4490  -27.3540 C.3   146  THR146      0.1897
     46  C          6.3310   10.6410  -28.6490 C.2   146  THR146      0.2313
     47  O          5.4240    9.9420  -29.0680 O.2   146  THR146     -0.2863
     48  CB         5.6900   12.8520  -27.6620 C.3   146  THR146      0.1794
     49  OG1        5.3880   13.5680  -26.4460 O.3   146  THR146     -0.2208
     50  CG2        4.3850   12.8360  -28.4370 C.3   146  THR146      0.0378
     51  N         19.0610    7.2360  -26.6470 N.3   235  GLY235     -0.1225
     52  CA        17.7940    7.3820  -27.3340 C.3   235  GLY235      0.1811
     53  C         17.7080    6.5770  -28.6370 C.2   235  GLY235      0.2280
     54  O         18.7040    6.0480  -29.1450 O.2   235  GLY235     -0.2866
     55  N         15.7560    8.1130  -31.3690 N.3   237  GLU237     -0.1245
     56  CA        15.5980    9.1570  -32.4060 C.3   237  GLU237      0.1567
     57  C         16.9740    9.7930  -32.7820 C.2   237  GLU237      0.2260
     58  O         17.6400   10.4080  -31.9390 O.2   237  GLU237     -0.2867
     59  CB        14.6680   10.2580  -31.9040 C.3   237  GLU237      0.0388
     60  CG        13.1740    9.9350  -31.8730 C.3   237  GLU237      0.1160
     61  CD        12.5750    9.6440  -33.2560 C.2   237  GLU237      0.3649
     62  OE1       13.0690   10.1700  -34.2800 O.co2 237  GLU237     -0.2457
     63  OE2       11.6040    8.8550  -33.3090 O.co2 237  GLU237     -0.2457
     64  N         17.7340   12.3200  -34.4350 N.3   239  GLY239     -0.1210
     65  CA        17.7140   13.7670  -34.3610 C.3   239  GLY239      0.1956
     66  C         17.7580   14.3010  -32.9380 C.2   239  GLY239      0.2611
     67  O         17.8190   15.5080  -32.7500 O.2   239  GLY239     -0.2717
     68  N         17.7470   13.4340  -31.9250 N.am  240  HIS240     -0.1975
     69  CA        17.7890   13.9350  -30.5670 C.3   240  HIS240      0.1656
     70  C         19.1790   13.9060  -29.9480 C.2   240  HIS240      0.2291
     71  O         19.4180   14.5170  -28.8810 O.2   240  HIS240     -0.2864
     72  CB        16.8350   13.1720  -29.6560 C.3   240  HIS240      0.0771
     73  CG        15.3850   13.3290  -30.0090 C.ar  240  HIS240      0.0820
     74  ND1       14.3890   12.6710  -29.3210 N.ar  240  HIS240     -0.2267
     75  CD2       14.7650   14.0390  -30.9840 C.ar  240  HIS240      0.1154
     76  CE1       13.2130   12.9870  -29.8420 C.ar  240  HIS240      0.1986
     77  NE2       13.4140   13.8090  -30.8580 N.ar  240  HIS240     -0.2212
     78  N         13.3200    5.5100  -25.7510 N.3   262  ASP262     -0.1225
     79  CA        12.9650    6.8840  -25.6120 C.3   262  ASP262      0.1805
     80  C         12.7300    7.1800  -24.1320 C.2   262  ASP262      0.2598
     81  O         12.3180    6.2980  -23.3700 O.2   262  ASP262     -0.2718
     82  CB        11.6690    7.1750  -26.3600 C.3   262  ASP262      0.1424
     83  CG        11.7690    6.9250  -27.8670 C.2   262  ASP262      0.3668
     84  OD1       11.5570    5.7820  -28.2950 O.co2 262  ASP262     -0.2456
     85  OD2       11.9800    7.8310  -28.6890 O.co2 262  ASP262     -0.2456
     86  N         12.9630    8.4290  -23.7790 N.am  263  SER263     -0.1952
     87  CA        12.4990    9.0620  -22.5150 C.3   263  SER263      0.1924
     88  C         13.4310    8.9030  -21.3260 C.2   263  SER263      0.2314
     89  O         14.4150    8.1750  -21.3920 O.2   263  SER263     -0.2863
     90  CB        11.0880    8.5890  -22.1210 C.3   263  SER263      0.2116
     91  OG        11.0950    7.3900  -21.3060 O.3   263  SER263     -0.2180
     92  N         15.2340    5.9190  -19.3630 N.3   266  LYS266     -0.1245
     93  CA        16.6420    5.6190  -19.3720 C.3   266  LYS266      0.1561
     94  C         17.3210    5.8740  -18.0440 C.2   266  LYS266      0.2260
     95  O         18.0960    5.0140  -17.6060 O.2   266  LYS266     -0.2867
     96  CB        17.3510    6.3680  -20.4900 C.3   266  LYS266      0.0271
     97  CG        16.9630    5.9190  -21.9200 C.3   266  LYS266      0.0035
     98  CD        17.8340    6.5830  -22.9870 C.3   266  LYS266      0.0206
     99  CE        17.5240    8.0640  -23.1920 C.3   266  LYS266      0.1093
    100  NZ        16.1020    8.1320  -23.7040 N.3   266  LYS266     -0.1314
    101  N         24.5490    6.7710  -19.4880 N.3   278  TYR278     -0.1241
    102  CA        23.5180    7.4140  -20.3040 C.3   278  TYR278      0.1605
    103  C         24.2450    8.4370  -21.1450 C.2   278  TYR278      0.2264
    104  O         24.7910    9.3720  -20.6120 O.2   278  TYR278     -0.2867
    105  CB        22.4800    8.0860  -19.3820 C.3   278  TYR278      0.0534
    106  CG        21.5480    9.1210  -19.9950 C.ar  278  TYR278     -0.0201
    107  CD1       22.0140   10.3320  -20.5020 C.ar  278  TYR278     -0.0009
    108  CD2       20.1930    8.9120  -20.0020 C.ar  278  TYR278     -0.0009
    109  CE1       21.1310   11.2710  -21.0530 C.ar  278  TYR278      0.0417
    110  CE2       19.3220    9.8360  -20.5290 C.ar  278  TYR278      0.0417
    111  CZ        19.7640   10.9870  -21.0540 C.ar  278  TYR278      0.1957
    112  OH        18.8160   11.8300  -21.5970 O.3   278  TYR278     -0.2866
    113  N         24.0690   11.3860  -24.0600 N.3   280  ARG280     -0.1245
    114  CA        23.2930   12.3300  -24.8800 C.3   280  ARG280      0.1563
    115  C         24.1230   13.5100  -25.3580 C.2   280  ARG280      0.2260
    116  O         24.0880   14.5990  -24.8110 O.2   280  ARG280     -0.2867
    117  CB        22.0520   12.7800  -24.1170 C.3   280  ARG280      0.0307
    118  CG        21.0730   13.6740  -24.8820 C.3   280  ARG280      0.0489
    119  CD        19.9630   14.1920  -23.9760 C.3   280  ARG280      0.2205
    120  NE        18.8440   14.7990  -24.6750 N.pl3 280  ARG280     -0.0865
    121  CZ        17.6840   14.1990  -24.9030 C.cat 280  ARG280      0.5346
    122  NH1       17.4790   12.9590  -24.5000 N.pl3 280  ARG280      0.1354
    123  NH2       16.7160   14.8600  -25.5100 N.pl3 280  ARG280      0.1354
    124  N         25.1970   16.4970  -27.9590 N.3   282  PRO282     -0.2102
    125  CA        24.3600   17.4080  -28.7670 C.3   282  PRO282      0.1504
    126  C         24.6900   17.2970  -30.2330 C.2   282  PRO282      0.2575
    127  O         25.8650   17.2210  -30.5850 O.2   282  PRO282     -0.2718
    128  CB        24.7800   18.7960  -28.2690 C.3   282  PRO282      0.0282
    129  CG        26.1890   18.6240  -27.9570 C.3   282  PRO282      0.0208
    130  CD        26.3080   17.2320  -27.3430 C.3   282  PRO282      0.0893
    131  N         23.6890   17.3070  -31.0910 N.am  283  ILE283     -0.1980
    132  CA        23.9720   17.3360  -32.5150 C.3   283  ILE283      0.1595
    133  C         24.4110   18.7280  -32.8980 C.2   283  ILE283      0.2287
    134  O         25.5010   18.9320  -33.4530 O.2   283  ILE283     -0.2864
    135  CB        22.7540   16.9950  -33.3200 C.3   283  ILE283      0.0276
    136  CG1       22.4760   15.4980  -33.2110 C.3   283  ILE283      0.0022
    137  CG2       22.9940   17.3470  -34.7810 C.3   283  ILE283      0.0022
    138  CD1       21.1480   15.1100  -33.8130 C.3   283  ILE283      0.0001
    139  N         21.5050   24.0410  -29.5070 N.3   287  TYR287     -0.1241
    140  CA        20.3420   23.5300  -28.7780 C.3   287  TYR287      0.1605
    141  C         20.5390   23.7040  -27.2520 C.2   287  TYR287      0.2264
    142  O         21.6140   23.5020  -26.7290 O.2   287  TYR287     -0.2867
    143  CB        20.0650   22.0490  -29.1370 C.3   287  TYR287      0.0534
    144  CG        18.7770   21.4880  -28.5080 C.ar  287  TYR287     -0.0201
    145  CD1       17.5190   21.8390  -28.9840 C.ar  287  TYR287     -0.0009
    146  CD2       18.8320   20.6060  -27.4280 C.ar  287  TYR287     -0.0009
    147  CE1       16.3570   21.3270  -28.4040 C.ar  287  TYR287      0.0417
    148  CE2       17.6750   20.1100  -26.8420 C.ar  287  TYR287      0.0417
    149  CZ        16.4450   20.4660  -27.3250 C.ar  287  TYR287      0.1957
    150  OH        15.2730   19.9650  -26.7330 O.3   287  TYR287     -0.2866
    151  N         18.8900   22.1720  -23.8020 N.3   289  GLU289     -0.1231
    152  CA        18.0110   21.1270  -23.3220 C.3   289  GLU289      0.1699
    153  C         16.9520   21.7530  -22.4300 C.2   289  GLU289      0.2592
    154  O         17.2440   22.6900  -21.6690 O.2   289  GLU289     -0.2718
    155  CB        18.8250   20.1080  -22.5170 C.3   289  GLU289      0.0402
    156  CG        19.7360   19.1890  -23.3040 C.3   289  GLU289      0.1161
    157  CD        19.0150   18.0440  -23.9780 C.2   289  GLU289      0.3649
    158  OE1       17.8510   17.7490  -23.6220 O.co2 289  GLU289     -0.2457
    159  OE2       19.6280   17.4350  -24.8610 O.co2 289  GLU289     -0.2457
    160  N         15.7290   21.2450  -22.4940 N.am  290  LYS290     -0.1980
    161  CA        14.6730   21.7220  -21.5990 C.3   290  LYS290      0.1596
    162  C         14.8440   21.0960  -20.2110 C.2   290  LYS290      0.2287
    163  O         15.1690   19.9270  -20.0880 O.2   290  LYS290     -0.2864
    164  CB        13.3140   21.3500  -22.1830 C.3   290  LYS290      0.0298
    165  CG        13.1900   21.6680  -23.6500 C.3   290  LYS290      0.0038
    166  CD        13.3940   23.1400  -23.9510 C.3   290  LYS290      0.0206
    167  CE        12.9770   23.4500  -25.3970 C.3   290  LYS290      0.1093
    168  NZ        12.7370   24.9000  -25.5740 N.3   290  LYS290     -0.1314
    169  N         12.7210   20.0860  -18.0760 N.3   292  TRP292     -0.1227
    170  CA        11.7710   18.9980  -17.8280 C.3   292  TRP292      0.1737
    171  C         12.1950   17.6570  -18.4360 C.2   292  TRP292      0.2595
    172  O         11.7060   16.6020  -18.0400 O.2   292  TRP292     -0.2718
    173  CB        10.3570   19.3570  -18.2940 C.3   292  TRP292      0.0564
    174  CG        10.2530   19.7500  -19.7340 C.ar  292  TRP292      0.0003
    175  CD1       10.2490   18.9160  -20.8080 C.ar  292  TRP292      0.0946
    176  CD2       10.1100   21.0640  -20.2510 C.ar  292  TRP292      0.0152
    177  NE1       10.1200   19.6380  -21.9710 N.ar  292  TRP292     -0.2442
    178  CE2       10.0210   20.9610  -21.6570 C.ar  292  TRP292      0.0810
    179  CE3       10.0340   22.3270  -19.6720 C.ar  292  TRP292      0.0012
    180  CZ2        9.8780   22.0620  -22.4780 C.ar  292  TRP292      0.0191
    181  CZ3        9.9070   23.4330  -20.5020 C.ar  292  TRP292      0.0001
    182  CH2        9.8270   23.2910  -21.8850 C.ar  292  TRP292      0.0015
    183  N         13.1680   17.6920  -19.3390 N.am  293  ASP293     -0.1974
    184  CA        13.7040   16.4800  -19.8990 C.3   293  ASP293      0.1709
    185  C         14.7100   15.8020  -18.9910 C.2   293  ASP293      0.2293
    186  O         15.1080   14.6980  -19.2800 O.2   293  ASP293     -0.2864
    187  CB        14.3300   16.7310  -21.2710 C.3   293  ASP293      0.1436
    188  CG        13.2590   16.8880  -22.3770 C.2   293  ASP293      0.3671
    189  OD1       12.1490   16.3480  -22.2060 O.co2 293  ASP293     -0.2456
    190  OD2       13.4430   17.5660  -23.4020 O.co2 293  ASP293     -0.2456
@<TRIPOS>BOND
     1   137   135    1
     2     4     3    2
     3     3     2    1
     4    64    65    1
     5    65    66    1
     6    62    61   ar
     7     2     1    1
     8     2     5    1
     9   138   136    1
    10     9    10    1
    11   134   133    2
    12   135   136    1
    13   135   132    1
    14    63    61   ar
    15    61    60    1
    16    66    67    2
    17    66    68   am
    18   133   132    1
    19    10    11    1
    20    10    13    1
    21    57    56    1
    22    57    58    2
    23     5     6    1
    24    12    11    2
    25   132   131    1
    26    56    59    1
    27    56    55    1
    28     7     6   ar
    29    68    69    1
    30    59    60    1
    31     6     8   ar
    32    13    14    1
    33   131   126   am
    34    75    77   ar
    35    75    73   ar
    36    77    76   ar
    37   127   126    2
    38    69    70    1
    39    69    72    1
    40   126   125    1
    41    73    72    1
    42    73    74   ar
    43    70    71    2
    44    76    74   ar
    45   139   140    1
    46    54    53    2
    47   143   140    1
    48   143   144    1
    49    47    46    2
    50   145   144   ar
    51   145   147   ar
    52   140   141    1
    53   125   128    1
    54   125   124    1
    55    85    83   ar
    56    46    45    1
    57    53    52    1
    58   144   146   ar
    59    50    48    1
    60   147   149   ar
    61    84    83   ar
    62   128   129    1
    63   124   130    1
    64   129   130    1
    65    83    82    1
    66    48    45    1
    67    48    49    1
    68   146   148   ar
    69    45    44    1
    70    52    51    1
    71   149   148   ar
    72   149   150    1
    73   141   142    2
    74    44    42   am
    75    43    42    2
    76    82    79    1
    77    42    41    1
    78    78    79    1
    79    79    80    1
    80   168   167    1
    81   123   121    1
    82    41    40    1
    83   167   166    1
    84    23    21   ar
    85   115   114    1
    86   115   116    2
    87   121   120    2
    88   121   122    1
    89   118   117    1
    90   118   119    1
    91   114   117    1
    92   114   113    1
    93   159   157   ar
    94   120   119    1
    95    40    34   am
    96    21    20    1
    97    21    22   ar
    98    80    86   am
    99    80    81    2
   100   157   158   ar
   101   157   156    1
   102   166   165    1
   103   151   152    1
   104    86    87    1
   105   100    99    1
   106   165   164    1
   107    20    19    1
   108   190   188   ar
   109    18    17    2
   110   152   155    1
   111   152   153    1
   112   156   155    1
   113    34    35    2
   114    34    33    1
   115    99    98    1
   116    98    97    1
   117    38    37   ar
   118    87    90    1
   119    87    88    1
   120   160   153   am
   121   160   161    1
   122   180   182   ar
   123   180   178   ar
   124   153   154    2
   125    17    16    1
   126   188   189   ar
   127   188   187    1
   128    33    32    1
   129    33    36    1
   130   164   161    1
   131    90    91    1
   132    19    16    1
   133   177   178   ar
   134   177   175   ar
   135    97    96    1
   136   182   181   ar
   137    37    39   ar
   138    37    36    1
   139   178   176   ar
   140   161   162    1
   141   112   111    1
   142    16    15    1
   143    31    29   ar
   144    30    29   ar
   145    89    88    2
   146   187   184    1
   147   103   104    2
   148   103   102    1
   149   111   109   ar
   150   111   110   ar
   151   109   107   ar
   152    29    28    1
   153   175   174   ar
   154   110   108   ar
   155   107   106   ar
   156   181   179   ar
   157    96    93    1
   158   102   101    1
   159   102   105    1
   160   176   174   ar
   161   176   179   ar
   162   162   163    2
   163   108   106   ar
   164   106   105    1
   165   184   183    1
   166   184   185    1
   167   174   173    1
   168    93    92    1
   169    93    94    1
   170    28    25    1
   171   183   171   am
   172   186   185    2
   173    25    26    1
   174    25    24    1
   175    26    27    2
   176   171   172    2
   177   171   170    1
   178   173   170    1
   179   169   170    1
   180    94    95    2
