@<TRIPOS>MOLECULE
tmp/1ka1A00.pdb
 223 214 0 0 0
SMALL
GASTEIGER

@<TRIPOS>ATOM
      1  N          8.0120   23.7680  -33.9920 N.3    40  ASP40      -0.1239
      2  CA         9.2410   23.0740  -34.3480 C.3    40  ASP40       0.1674
      3  C          9.0460   21.7150  -35.0200 C.2    40  ASP40       0.2266
      4  O         10.0100   20.9310  -35.1100 O.2    40  ASP40      -0.2867
      5  CB        10.1440   22.8830  -33.1160 C.3    40  ASP40       0.1410
      6  CG         9.5140   21.9980  -32.0480 C.2    40  ASP40       0.3668
      7  OD1        8.3590   21.5950  -32.2430 O.co2  40  ASP40      -0.2456
      8  OD2       10.1080   21.6780  -30.9690 O.co2  40  ASP40      -0.2456
      9  N          7.5560   19.1910  -33.9380 N.3    42  SER42      -0.1217
     10  CA         7.4020   18.0580  -33.0070 C.3    42  SER42       0.1889
     11  C          5.9310   17.7160  -32.7480 C.2    42  SER42       0.2288
     12  O          5.0710   18.5660  -32.7970 O.2    42  SER42      -0.2866
     13  CB         8.1210   18.3320  -31.6780 C.3    42  SER42       0.2089
     14  OG         7.5170   19.3700  -30.9300 O.3    42  SER42      -0.2183
     15  N          5.6230   21.5820  -20.2410 N.3    71  GLU71      -0.1245
     16  CA         5.9990   21.7600  -21.6370 C.3    71  GLU71       0.1567
     17  C          4.8730   22.3600  -22.4770 C.2    71  GLU71       0.2260
     18  O          5.1580   23.1220  -23.4000 O.2    71  GLU71      -0.2867
     19  CB         6.4070   20.4090  -22.2700 C.3    71  GLU71       0.0388
     20  CG         6.7510   20.5360  -23.7560 C.3    71  GLU71       0.1160
     21  CD         7.3780   19.3080  -24.3770 C.2    71  GLU71       0.3649
     22  OE1        7.3410   18.2130  -23.8550 O.co2  71  GLU71      -0.2457
     23  OE2        7.9830   19.4610  -25.4490 O.co2  71  GLU71      -0.2457
     24  N          7.1800   17.2950  -17.6620 N.3   141  ASP141     -0.1239
     25  CA         7.0170   16.8100  -19.0150 C.3   141  ASP141      0.1674
     26  C          5.9200   15.7510  -18.9890 C.2   141  ASP141      0.2266
     27  O          6.1560   14.6460  -18.4660 O.2   141  ASP141     -0.2867
     28  CB         8.3040   16.2420  -19.6110 C.3   141  ASP141      0.1410
     29  CG         8.1720   15.9650  -21.1020 C.2   141  ASP141      0.3668
     30  OD1        7.0190   15.9630  -21.5790 O.co2 141  ASP141     -0.2456
     31  OD2        9.1570   15.7740  -21.8420 O.co2 141  ASP141     -0.2456
     32  N          4.2730   13.8940  -21.2720 N.3   143  ILE143     -0.1231
     33  CA         4.7720   12.7100  -21.9610 C.3   143  ILE143      0.1692
     34  C          6.1670   12.9950  -22.4910 C.2   143  ILE143      0.2592
     35  O          6.2950   13.7900  -23.4460 O.2   143  ILE143     -0.2718
     36  CB         3.8530   12.1820  -23.0970 C.3   143  ILE143      0.0266
     37  CG1        2.5040   11.7200  -22.5440 C.3   143  ILE143      0.0019
     38  CG2        4.5680   11.0120  -23.8150 C.3   143  ILE143      0.0020
     39  CD1        1.5470   11.2650  -23.6540 C.3   143  ILE143      0.0001
     40  N          7.1820   12.4220  -21.8170 N.am  144  ASP144     -0.1960
     41  CA         8.5430   12.5190  -22.3160 C.3   144  ASP144      0.1840
     42  C          8.7250   11.3710  -23.2820 C.2   144  ASP144      0.2623
     43  O          8.4330   10.2290  -22.9660 O.2   144  ASP144     -0.2715
     44  CB         9.5840   12.4730  -21.2190 C.3   144  ASP144      0.1450
     45  CG        11.0360   12.7090  -21.8020 C.2   144  ASP144      0.3671
     46  OD1       11.2150   13.6110  -22.6960 O.co2 144  ASP144     -0.2456
     47  OD2       11.9420   12.0710  -21.3690 O.co2 144  ASP144     -0.2456
     48  N          9.1860   11.6400  -24.4930 N.am  145  GLY145     -0.1940
     49  CA         9.2670   10.6070  -25.4990 C.3   145  GLY145      0.2014
     50  C          7.9570   10.4180  -26.2900 C.2   145  GLY145      0.2640
     51  O          7.5700    9.2980  -26.5610 O.2   145  GLY145     -0.2714
     52  N          7.2800   11.5020  -26.6830 N.am  146  THR146     -0.1936
     53  CA         6.0530   11.3940  -27.4820 C.3   146  THR146      0.2028
     54  C          6.2730   10.5580  -28.7570 C.2   146  THR146      0.2642
     55  O          5.3830    9.8290  -29.1630 O.2   146  THR146     -0.2714
     56  CB         5.4840   12.8000  -27.7860 C.3   146  THR146      0.1808
     57  OG1        5.2660   13.4900  -26.5560 O.3   146  THR146     -0.2208
     58  CG2        4.1030   12.7350  -28.5230 C.3   146  THR146      0.0379
     59  N          7.4310   10.6560  -29.3930 N.am  147  LYS147     -0.1977
     60  CA         7.6810    9.8260  -30.5730 C.3   147  LYS147      0.1596
     61  C          7.7500    8.3340  -30.2320 C.2   147  LYS147      0.2287
     62  O          7.3290    7.4760  -31.0250 O.2   147  LYS147     -0.2864
     63  CB         8.9400   10.2620  -31.3100 C.3   147  LYS147      0.0298
     64  CG         8.7540   11.5910  -32.0110 C.3   147  LYS147      0.0038
     65  CD         9.9250   11.9510  -32.8980 C.3   147  LYS147      0.0206
     66  CE         9.6500   13.2950  -33.6120 C.3   147  LYS147      0.1093
     67  NZ        10.4970   13.5460  -34.8110 N.3   147  LYS147     -0.1314
     68  N         19.1660    7.1950  -26.8610 N.3   235  GLY235     -0.1210
     69  CA        17.9020    7.3460  -27.5490 C.3   235  GLY235      0.1956
     70  C         17.8100    6.5480  -28.8420 C.2   235  GLY235      0.2612
     71  O         18.7820    6.0450  -29.3780 O.2   235  GLY235     -0.2717
     72  N         16.5850    6.4730  -29.3420 N.am  236  VAL236     -0.1965
     73  CA        16.2670    5.8580  -30.6390 C.3   236  VAL236      0.1727
     74  C         16.3470    6.9000  -31.7580 C.2   236  VAL236      0.2616
     75  O         16.9010    6.6600  -32.8380 O.2   236  VAL236     -0.2715
     76  CB        14.8200    5.2720  -30.6070 C.3   236  VAL236      0.0290
     77  CG1       14.3360    4.8370  -31.9690 C.3   236  VAL236      0.0023
     78  CG2       14.7510    4.1610  -29.6280 C.3   236  VAL236      0.0023
     79  N         15.8080    8.0800  -31.5240 N.am  237  GLU237     -0.1977
     80  CA        15.6340    9.0820  -32.5910 C.3   237  GLU237      0.1602
     81  C         16.9820    9.7270  -32.9850 C.2   237  GLU237      0.2287
     82  O         17.6680   10.3610  -32.1360 O.2   237  GLU237     -0.2864
     83  CB        14.6900   10.1810  -32.1280 C.3   237  GLU237      0.0415
     84  CG        13.2380    9.7250  -32.0330 C.3   237  GLU237      0.1163
     85  CD        12.5340    9.5660  -33.3700 C.2   237  GLU237      0.3649
     86  OE1       12.9720   10.1950  -34.3400 O.co2 237  GLU237     -0.2457
     87  OE2       11.5480    8.7970  -33.4190 O.co2 237  GLU237     -0.2457
     88  N         17.7750   12.2580  -34.6720 N.3   239  GLY239     -0.1210
     89  CA        17.8450   13.7010  -34.5780 C.3   239  GLY239      0.1956
     90  C         17.9440   14.2430  -33.1620 C.2   239  GLY239      0.2611
     91  O         18.1020   15.4600  -32.9790 O.2   239  GLY239     -0.2717
     92  N         17.8420   13.3840  -32.1490 N.am  240  HIS240     -0.1975
     93  CA        17.9040   13.8840  -30.7750 C.3   240  HIS240      0.1656
     94  C         19.2930   13.8270  -30.1030 C.2   240  HIS240      0.2291
     95  O         19.4820   14.4590  -29.0340 O.2   240  HIS240     -0.2864
     96  CB        16.9680   13.1260  -29.8540 C.3   240  HIS240      0.0771
     97  CG        15.5090   13.2730  -30.1700 C.ar  240  HIS240      0.0820
     98  ND1       14.5390   12.6320  -29.4310 N.ar  240  HIS240     -0.2267
     99  CD2       14.8530   13.9750  -31.1270 C.ar  240  HIS240      0.1154
    100  CE1       13.3510   12.9370  -29.9210 C.ar  240  HIS240      0.1986
    101  NE2       13.5110   13.7480  -30.9500 N.ar  240  HIS240     -0.2212
    102  N         13.3560    5.5100  -25.8710 N.3   262  ASP262     -0.1225
    103  CA        12.9820    6.8890  -25.7070 C.3   262  ASP262      0.1805
    104  C         12.7640    7.1900  -24.1940 C.2   262  ASP262      0.2598
    105  O         12.4060    6.3010  -23.4130 O.2   262  ASP262     -0.2718
    106  CB        11.6380    7.1650  -26.4330 C.3   262  ASP262      0.1424
    107  CG        11.7180    6.9090  -27.9190 C.2   262  ASP262      0.3668
    108  OD1       11.4820    5.7270  -28.2650 O.co2 262  ASP262     -0.2456
    109  OD2       11.9910    7.8030  -28.7610 O.co2 262  ASP262     -0.2456
    110  N         12.9770    8.4500  -23.8280 N.am  263  SER263     -0.1952
    111  CA        12.5570    9.0600  -22.5360 C.3   263  SER263      0.1924
    112  C         13.5060    8.8650  -21.3670 C.2   263  SER263      0.2314
    113  O         14.4800    8.0910  -21.4410 O.2   263  SER263     -0.2863
    114  CB        11.1890    8.5740  -22.1280 C.3   263  SER263      0.2116
    115  OG        11.2140    7.3800  -21.3470 O.3   263  SER263     -0.2180
    116  N         15.3250    5.9150  -19.4250 N.3   266  LYS266     -0.1245
    117  CA        16.7520    5.5970  -19.4350 C.3   266  LYS266      0.1561
    118  C         17.4150    5.8620  -18.0810 C.2   266  LYS266      0.2260
    119  O         18.2250    5.0560  -17.6090 O.2   266  LYS266     -0.2867
    120  CB        17.4950    6.3610  -20.5440 C.3   266  LYS266      0.0271
    121  CG        17.1570    5.8470  -21.9400 C.3   266  LYS266      0.0035
    122  CD        17.9310    6.5400  -23.0610 C.3   266  LYS266      0.0206
    123  CE        17.5050    7.9500  -23.4300 C.3   266  LYS266      0.1093
    124  NZ        16.0800    8.1110  -23.8180 N.3   266  LYS266     -0.1314
    125  N         24.6460    6.6650  -19.5900 N.3   278  TYR278     -0.1241
    126  CA        23.6450    7.3520  -20.4280 C.3   278  TYR278      0.1605
    127  C         24.4120    8.3890  -21.2390 C.2   278  TYR278      0.2264
    128  O         25.0440    9.2400  -20.6740 O.2   278  TYR278     -0.2867
    129  CB        22.5530    7.9930  -19.4940 C.3   278  TYR278      0.0534
    130  CG        21.5720    9.0130  -20.0790 C.ar  278  TYR278     -0.0201
    131  CD1       21.9800   10.2610  -20.4560 C.ar  278  TYR278     -0.0009
    132  CD2       20.2240    8.7660  -20.1040 C.ar  278  TYR278     -0.0009
    133  CE1       21.0860   11.2010  -20.9700 C.ar  278  TYR278      0.0417
    134  CE2       19.3210    9.6860  -20.5860 C.ar  278  TYR278      0.0417
    135  CZ        19.7540   10.8970  -21.0490 C.ar  278  TYR278      0.1957
    136  OH        18.8100   11.7860  -21.5580 O.3   278  TYR278     -0.2866
    137  N         24.1660   11.3700  -24.2340 N.3   280  ARG280     -0.1245
    138  CA        23.3250   12.2650  -25.0310 C.3   280  ARG280      0.1563
    139  C         24.2040   13.4230  -25.5130 C.2   280  ARG280      0.2260
    140  O         24.1960   14.5090  -24.9580 O.2   280  ARG280     -0.2867
    141  CB        22.1080   12.7280  -24.2220 C.3   280  ARG280      0.0307
    142  CG        21.0840   13.5650  -24.9900 C.3   280  ARG280      0.0489
    143  CD        20.0320   14.1110  -24.0520 C.3   280  ARG280      0.2205
    144  NE        18.9220   14.7100  -24.7650 N.pl3 280  ARG280     -0.0865
    145  CZ        17.8470   14.0300  -25.1740 C.cat 280  ARG280      0.5346
    146  NH1       17.6830   12.7670  -24.7870 N.pl3 280  ARG280      0.1354
    147  NH2       16.8750   14.6330  -25.8320 N.pl3 280  ARG280      0.1354
    148  N         25.2760   16.3370  -28.1200 N.3   282  PRO282     -0.2102
    149  CA        24.5180   17.2830  -28.9660 C.3   282  PRO282      0.1504
    150  C         24.9110   17.1410  -30.4550 C.2   282  PRO282      0.2576
    151  O         26.0840   17.0820  -30.7150 O.2   282  PRO282     -0.2718
    152  CB        24.9790   18.6440  -28.4000 C.3   282  PRO282      0.0282
    153  CG        26.3920   18.3730  -27.9540 C.3   282  PRO282      0.0208
    154  CD        26.3320   17.0110  -27.3430 C.3   282  PRO282      0.0893
    155  N         23.9900   17.0660  -31.4030 N.am  283  ILE283     -0.1966
    156  CA        24.3400   17.1870  -32.8190 C.3   283  ILE283      0.1727
    157  C         24.7020   18.6300  -33.1680 C.2   283  ILE283      0.2616
    158  O         25.7880   18.9060  -33.7210 O.2   283  ILE283     -0.2715
    159  CB        23.1450   16.7910  -33.6810 C.3   283  ILE283      0.0290
    160  CG1       22.7800   15.3390  -33.4050 C.3   283  ILE283      0.0022
    161  CG2       23.4390   17.0470  -35.1710 C.3   283  ILE283      0.0023
    162  CD1       21.6210   14.8380  -34.2610 C.3   283  ILE283      0.0001
    163  N         23.8150   19.5530  -32.8290 N.am  284  LYS284     -0.1977
    164  CA        24.0630   20.9840  -33.0540 C.3   284  LYS284      0.1596
    165  C         24.3220   21.6730  -31.7350 C.2   284  LYS284      0.2287
    166  O         23.5130   21.5380  -30.7940 O.2   284  LYS284     -0.2864
    167  CB        22.8910   21.6480  -33.7960 C.3   284  LYS284      0.0298
    168  CG        22.6990   21.1100  -35.2230 C.3   284  LYS284      0.0038
    169  CD        21.2400   21.0560  -35.6170 C.3   284  LYS284      0.0206
    170  CE        21.0240   20.2520  -36.9000 C.3   284  LYS284      0.1093
    171  NZ        19.5870   20.3170  -37.3490 N.3   284  LYS284     -0.1314
    172  N         21.6010   23.9800  -29.8050 N.3   287  TYR287     -0.1241
    173  CA        20.4710   23.4560  -29.0480 C.3   287  TYR287      0.1605
    174  C         20.6430   23.6560  -27.5120 C.2   287  TYR287      0.2264
    175  O         21.7140   23.4810  -26.9840 O.2   287  TYR287     -0.2867
    176  CB        20.2630   21.9750  -29.4000 C.3   287  TYR287      0.0534
    177  CG        19.0410   21.3950  -28.7140 C.ar  287  TYR287     -0.0201
    178  CD1       17.7630   21.6990  -29.1740 C.ar  287  TYR287     -0.0009
    179  CD2       19.1530   20.5540  -27.6150 C.ar  287  TYR287     -0.0009
    180  CE1       16.6270   21.2060  -28.5560 C.ar  287  TYR287      0.0417
    181  CE2       18.0360   20.0680  -26.9840 C.ar  287  TYR287      0.0417
    182  CZ        16.7660   20.4020  -27.4670 C.ar  287  TYR287      0.1957
    183  OH        15.5880   19.9420  -26.8980 O.3   287  TYR287     -0.2866
    184  N         19.0910   22.2260  -24.0280 N.3   289  GLU289     -0.1231
    185  CA        18.2540   21.2140  -23.4310 C.3   289  GLU289      0.1699
    186  C         17.1790   21.8360  -22.5460 C.2   289  GLU289      0.2592
    187  O         17.4270   22.7990  -21.7940 O.2   289  GLU289     -0.2718
    188  CB        19.1390   20.2740  -22.5860 C.3   289  GLU289      0.0402
    189  CG        20.0210   19.3780  -23.4400 C.3   289  GLU289      0.1161
    190  CD        19.3170   18.1310  -23.9970 C.2   289  GLU289      0.3649
    191  OE1       18.1570   17.7860  -23.7060 O.co2 289  GLU289     -0.2457
    192  OE2       19.9820   17.4410  -24.7670 O.co2 289  GLU289     -0.2457
    193  N         15.9980   21.2380  -22.5690 N.am  290  LYS290     -0.1980
    194  CA        14.9210   21.6460  -21.6920 C.3   290  LYS290      0.1596
    195  C         15.0740   21.0440  -20.2880 C.2   290  LYS290      0.2287
    196  O         15.3510   19.8370  -20.1550 O.2   290  LYS290     -0.2864
    197  CB        13.5730   21.2190  -22.2920 C.3   290  LYS290      0.0298
    198  CG        13.3700   21.5830  -23.7660 C.3   290  LYS290      0.0038
    199  CD        13.5830   23.0660  -24.0130 C.3   290  LYS290      0.0206
    200  CE        13.2920   23.3960  -25.5020 C.3   290  LYS290      0.1093
    201  NZ        14.3880   22.8580  -26.3910 N.3   290  LYS290     -0.1314
    202  N         12.8270   20.0760  -18.2290 N.3   292  TRP292     -0.1227
    203  CA        11.9050   18.9740  -17.9920 C.3   292  TRP292      0.1737
    204  C         12.3350   17.6480  -18.5940 C.2   292  TRP292      0.2595
    205  O         11.7980   16.6020  -18.2230 O.2   292  TRP292     -0.2718
    206  CB        10.4620   19.3140  -18.4370 C.3   292  TRP292      0.0564
    207  CG        10.3520   19.7340  -19.8780 C.ar  292  TRP292      0.0003
    208  CD1       10.4380   18.9370  -21.0100 C.ar  292  TRP292      0.0946
    209  CD2       10.1580   21.0540  -20.3440 C.ar  292  TRP292      0.0152
    210  NE1       10.2850   19.7080  -22.1360 N.ar  292  TRP292     -0.2442
    211  CE2       10.1220   21.0100  -21.7610 C.ar  292  TRP292      0.0810
    212  CE3       10.0100   22.2760  -19.7130 C.ar  292  TRP292      0.0012
    213  CZ2        9.9360   22.1350  -22.5430 C.ar  292  TRP292      0.0191
    214  CZ3        9.8350   23.3950  -20.4920 C.ar  292  TRP292      0.0001
    215  CH2        9.8090   23.3250  -21.9090 C.ar  292  TRP292      0.0015
    216  N         13.3490   17.6810  -19.4790 N.am  293  ASP293     -0.1974
    217  CA        13.8910   16.4520  -20.0420 C.3   293  ASP293      0.1709
    218  C         14.9210   15.7690  -19.1150 C.2   293  ASP293      0.2293
    219  O         15.2680   14.6060  -19.3750 O.2   293  ASP293     -0.2864
    220  CB        14.5100   16.7180  -21.4170 C.3   293  ASP293      0.1436
    221  CG        13.4740   16.9340  -22.4970 C.2   293  ASP293      0.3671
    222  OD1       12.3370   16.4430  -22.3150 O.co2 293  ASP293     -0.2456
    223  OD2       13.7620   17.6080  -23.5480 O.co2 293  ASP293     -0.2456
@<TRIPOS>BOND
     1   171   170    1
     2   170   169    1
     3   169   168    1
     4   168   167    1
     5   161   159    1
     6     4     3    2
     7     3     2    1
     8    67    66    1
     9    88    89    1
    10    89    90    1
    11     2     1    1
    12     2     5    1
    13    86    85   ar
    14   162   160    1
    15     9    10    1
    16   167   164    1
    17   158   157    2
    18   159   160    1
    19   159   156    1
    20    66    65    1
    21    87    85   ar
    22    85    84    1
    23   157   163   am
    24   157   156    1
    25    90    91    2
    26    90    92   am
    27     5     6    1
    28   164   163    1
    29   164   165    1
    30    10    11    1
    31    10    13    1
    32    81    80    1
    33    81    82    2
    34    65    64    1
    35    75    74    2
    36   156   155    1
    37    12    11    2
    38    80    83    1
    39    80    79    1
    40     7     6   ar
    41    92    93    1
    42    83    84    1
    43     6     8   ar
    44    64    63    1
    45    77    76    1
    46    74    79   am
    47    74    73    1
    48   165   166    2
    49    13    14    1
    50   155   150   am
    51    63    60    1
    52    99   101   ar
    53    99    97   ar
    54    62    61    2
    55   101   100   ar
    56    93    94    1
    57    93    96    1
    58   151   150    2
    59    73    76    1
    60    73    72    1
    61    76    78    1
    62    60    61    1
    63    60    59    1
    64   150   149    1
    65    97    96    1
    66    97    98   ar
    67    94    95    2
    68   100    98   ar
    69   172   173    1
    70   176   173    1
    71   176   177    1
    72    59    54   am
    73    71    70    2
    74    72    70   am
    75   178   177   ar
    76   178   180   ar
    77    55    54    2
    78   173   174    1
    79   149   152    1
    80   149   148    1
    81    70    69    1
    82   109   107   ar
    83    54    53    1
    84   177   179   ar
    85   180   182   ar
    86    58    56    1
    87   152   153    1
    88   108   107   ar
    89   148   154    1
    90   153   154    1
    91   107   106    1
    92    56    53    1
    93    56    57    1
    94   179   181   ar
    95    69    68    1
    96   174   175    2
    97    53    52    1
    98   182   181   ar
    99   182   183    1
   100    52    50   am
   101    51    50    2
   102   106   103    1
   103   201   200    1
   104    50    49    1
   105   102   103    1
   106   147   145    1
   107   103   104    1
   108   139   138    1
   109   139   140    2
   110   200   199    1
   111    49    48    1
   112    23    21   ar
   113   145   146    1
   114   145   144    2
   115   138   137    1
   116   138   141    1
   117   142   141    1
   118   142   143    1
   119   192   190   ar
   120   144   143    1
   121    48    42   am
   122    21    22   ar
   123    21    20    1
   124   104   110   am
   125   104   105    2
   126   184   185    1
   127   199   198    1
   128   190   191   ar
   129   190   189    1
   130   110   111    1
   131   124   123    1
   132    38    36    1
   133   198   197    1
   134    20    19    1
   135    39    37    1
   136   223   221   ar
   137    35    34    2
   138   189   188    1
   139   185   188    1
   140   185   186    1
   141   123   122    1
   142    18    17    2
   143    42    43    2
   144    42    41    1
   145    36    37    1
   146    36    33    1
   147   122   121    1
   148    46    45   ar
   149   193   186   am
   150   193   194    1
   151   186   187    2
   152   213   215   ar
   153   213   211   ar
   154   111   114    1
   155   111   112    1
   156   221   222   ar
   157   221   220    1
   158    34    33    1
   159    34    40   am
   160    17    16    1
   161    41    40    1
   162    41    44    1
   163   197   194    1
   164    19    16    1
   165   210   211   ar
   166   210   208   ar
   167   114   115    1
   168    33    32    1
   169   121   120    1
   170   215   214   ar
   171    31    29   ar
   172    45    47   ar
   173    45    44    1
   174   211   209   ar
   175   194   195    1
   176    16    15    1
   177    30    29   ar
   178   136   135    1
   179   113   112    2
   180   220   217    1
   181   127   128    2
   182   127   126    1
   183    29    28    1
   184   135   133   ar
   185   135   134   ar
   186   208   207   ar
   187   133   131   ar
   188   134   132   ar
   189   120   117    1
   190   214   212   ar
   191   131   130   ar
   192   126   125    1
   193   126   129    1
   194   209   207   ar
   195   209   212   ar
   196   195   196    2
   197   132   130   ar
   198   130   129    1
   199   217   216    1
   200   217   218    1
   201   207   206    1
   202    28    25    1
   203   216   204   am
   204   117   116    1
   205   117   118    1
   206   219   218    2
   207    25    26    1
   208    25    24    1
   209    26    27    2
   210   204   205    2
   211   204   203    1
   212   206   203    1
   213   202   203    1
   214   118   119    2
