@<TRIPOS>MOLECULE
tmp/1ka6A00.pdb
 176 171 0 0 0
SMALL
GASTEIGER

@<TRIPOS>ATOM
      1  N          7.2830   -7.3850    6.5380 N.3    13  ARG13      -0.1231
      2  CA         7.4490   -5.9670    6.2660 C.3    13  ARG13       0.1694
      3  C          8.8230   -5.6900    5.6700 C.2    13  ARG13       0.2591
      4  O          9.0110   -4.7180    4.9400 O.2    13  ARG13      -0.2718
      5  CB         7.2610   -5.1750    7.5560 C.3    13  ARG13       0.0321
      6  CG         6.8510   -3.7280    7.3340 C.3    13  ARG13       0.0489
      7  CD         6.9700   -2.9160    8.6140 C.3    13  ARG13       0.2205
      8  NE         6.3460   -3.5920    9.7490 N.pl3  13  ARG13      -0.0865
      9  CZ         6.2160   -3.0470   10.9540 C.cat  13  ARG13       0.5346
     10  NH1        6.6690   -1.8210   11.1860 N.pl3  13  ARG13       0.1354
     11  NH2        5.6340   -3.7280   11.9320 N.pl3  13  ARG13       0.1354
     12  N          9.7770   -6.5590    5.9860 N.am   14  GLU14      -0.1979
     13  CA        11.1350   -6.4210    5.4820 C.3    14  GLU14       0.1602
     14  C         11.1940   -6.7260    3.9900 C.2    14  GLU14       0.2287
     15  O         11.8510   -6.0170    3.2280 O.2    14  GLU14      -0.2864
     16  CB        12.0770   -7.3570    6.2370 C.3    14  GLU14       0.0415
     17  CG        13.5350   -6.9410    6.1520 C.3    14  GLU14       0.1163
     18  CD        14.2240   -6.9410    7.5030 C.2    14  GLU14       0.3649
     19  OE1       14.4130   -8.0370    8.0730 O.co2  14  GLU14      -0.2457
     20  OE2       14.5740   -5.8470    7.9910 O.co2  14  GLU14      -0.2457
     21  N          9.8110   -3.9690    1.9740 N.3    17  GLU17      -0.1231
     22  CA        10.7080   -2.8230    2.0380 C.3    17  GLU17       0.1699
     23  C         11.8940   -3.0100    1.0980 C.2    17  GLU17       0.2592
     24  O         12.3180   -2.0720    0.4240 O.2    17  GLU17      -0.2718
     25  CB        11.2070   -2.6180    3.4680 C.3    17  GLU17       0.0402
     26  CG        10.1880   -1.9600    4.3840 C.3    17  GLU17       0.1161
     27  CD        10.5660   -2.0770    5.8470 C.2    17  GLU17       0.3649
     28  OE1       11.6440   -1.5720    6.2250 O.co2  17  GLU17      -0.2457
     29  OE2        9.7830   -2.6740    6.6170 O.co2  17  GLU17      -0.2457
     30  N         12.4230   -4.2290    1.0600 N.am   18  LYS18      -0.1980
     31  CA        13.5610   -4.5430    0.2040 C.3    18  LYS18       0.1596
     32  C         13.1420   -4.5810   -1.2610 C.2    18  LYS18       0.2287
     33  O         13.9260   -4.2480   -2.1500 O.2    18  LYS18      -0.2864
     34  CB        14.1760   -5.8840    0.6100 C.3    18  LYS18       0.0298
     35  CG        15.1750   -5.7730    1.7510 C.3    18  LYS18       0.0038
     36  CD        15.1890   -7.0310    2.6050 C.3    18  LYS18       0.0206
     37  CE        16.2720   -7.9990    2.1550 C.3    18  LYS18       0.1093
     38  NZ        15.7330   -9.0570    1.2550 N.3    18  LYS18      -0.1314
     39  N         12.8630   -1.0040   -2.5210 N.3    21  LEU21      -0.1245
     40  CA        14.2270   -0.4850   -2.5500 C.3    21  LEU21       0.1561
     41  C         14.9500   -0.9110   -3.8200 C.2    21  LEU21       0.2260
     42  O         15.6470   -0.1120   -4.4450 O.2    21  LEU21      -0.2867
     43  CB        15.0150   -0.9760   -1.3370 C.3    21  LEU21       0.0270
     44  CG        14.7540   -0.2160   -0.0390 C.3    21  LEU21       0.0019
     45  CD1       15.4080   -0.9330    1.1310 C.3    21  LEU21       0.0001
     46  CD2       15.2730    1.2080   -0.1520 C.3    21  LEU21       0.0001
     47  N          0.9500   -6.4480    0.9470 N.3    32  ARG32      -0.1245
     48  CA         1.4980   -7.4340    1.8690 C.3    32  ARG32       0.1563
     49  C          0.4820   -7.7840    2.9540 C.2    32  ARG32       0.2260
     50  O         -0.3400   -6.9520    3.3390 O.2    32  ARG32      -0.2867
     51  CB         2.7970   -6.9040    2.4980 C.3    32  ARG32       0.0307
     52  CG         2.7830   -6.8440    4.0210 C.3    32  ARG32       0.0489
     53  CD         3.5730   -5.6560    4.5410 C.3    32  ARG32       0.2205
     54  NE         3.3870   -5.4600    5.9780 N.pl3  32  ARG32      -0.0865
     55  CZ         3.8430   -6.2990    6.9050 C.cat  32  ARG32       0.5346
     56  NH1        4.5100   -7.3900    6.5490 N.pl3  32  ARG32       0.1354
     57  NH2        3.6320   -6.0480    8.1890 N.pl3  32  ARG32       0.1354
     58  N         -0.3550   -8.1520    6.5390 N.3    34  SER34      -0.1217
     59  CA         0.1050   -7.7390    7.8610 C.3    34  SER34       0.1889
     60  C          0.2650   -8.9380    8.7910 C.2    34  SER34       0.2288
     61  O         -0.7110   -9.6040    9.1370 O.2    34  SER34      -0.2866
     62  CB        -0.8740   -6.7330    8.4710 C.3    34  SER34       0.2089
     63  OG        -0.5240   -6.4270    9.8100 O.3    34  SER34      -0.2183
     64  N          1.5510   -9.0030   12.0930 N.3    36  SER36      -0.1202
     65  CA         1.0360   -8.6790   13.4200 C.3    36  SER36       0.2020
     66  C         -0.4850   -8.5630   13.4020 C.2    36  SER36       0.2618
     67  O         -1.1490   -8.8510   14.3980 O.2    36  SER36      -0.2717
     68  CB         1.6540   -7.3720   13.9230 C.3    36  SER36       0.2103
     69  OG         2.4670   -6.7760   12.9270 O.3    36  SER36      -0.2182
     70  N         -1.0290   -8.1390   12.2660 N.am   37  VAL37      -0.1979
     71  CA        -2.4720   -7.9880   12.1210 C.3    37  VAL37       0.1595
     72  C         -3.0010   -8.8540   10.9790 C.2    37  VAL37       0.2287
     73  O         -3.1800   -8.3780    9.8560 O.2    37  VAL37      -0.2864
     74  CB        -2.8600   -6.5170   11.8660 C.3    37  VAL37       0.0276
     75  CG1       -4.3330   -6.2930   12.1720 C.3    37  VAL37       0.0022
     76  CG2       -1.9910   -5.5840   12.6940 C.3    37  VAL37       0.0022
     77  N         -1.4070   -4.2790    3.6440 N.3    42  CYS42      -0.1235
     78  CA        -0.6070   -3.0640    3.7530 C.3    42  CYS42       0.1677
     79  C         -0.0720   -2.6360    2.3900 C.2    42  CYS42       0.2270
     80  O          0.5930   -3.4100    1.7000 O.2    42  CYS42      -0.2867
     81  CB         0.5530   -3.2800    4.7270 C.3    42  CYS42       0.0956
     82  SG         0.0390   -3.7690    6.3900 S.3    42  CYS42      -0.0801
     83  N         13.8090    6.4340   -1.1150 N.3    49  GLY49      -0.1210
     84  CA        14.3760    5.2480   -0.4990 C.3    49  GLY49       0.1956
     85  C         13.6270    4.8220    0.7500 C.2    49  GLY49       0.2612
     86  O         14.2090    4.2270    1.6560 O.2    49  GLY49      -0.2717
     87  N         12.3330    5.1290    0.7990 N.am   50  TYR50      -0.1962
     88  CA        11.5080    4.7730    1.9480 C.3    50  TYR50       0.1771
     89  C         10.3250    3.9050    1.5270 C.2    50  TYR50       0.2619
     90  O         10.0010    3.8100    0.3430 O.2    50  TYR50      -0.2715
     91  CB        11.0040    6.0340    2.6530 C.3    50  TYR50       0.0574
     92  CG        12.0460    6.7050    3.5220 C.ar   50  TYR50      -0.0198
     93  CD1       12.7980    5.9710    4.4320 C.ar   50  TYR50      -0.0009
     94  CD2       12.2770    8.0710    3.4320 C.ar   50  TYR50      -0.0009
     95  CE1       13.7510    6.5810    5.2260 C.ar   50  TYR50       0.0417
     96  CE2       13.2280    8.6880    4.2230 C.ar   50  TYR50       0.0417
     97  CZ        13.9610    7.9390    5.1180 C.ar   50  TYR50       0.1957
     98  OH        14.9080    8.5500    5.9070 O.3    50  TYR50      -0.2866
     99  N          9.6870    3.2730    2.5080 N.am   51  ILE51      -0.1963
    100  CA         8.5390    2.4120    2.2490 C.3    51  ILE51       0.1727
    101  C          7.3760    2.7560    3.1730 C.2    51  ILE51       0.2616
    102  O          7.3210    2.3030    4.3170 O.2    51  ILE51      -0.2715
    103  CB         8.9050    0.9230    2.4210 C.3    51  ILE51       0.0290
    104  CG1        9.9440    0.5090    1.3770 C.3    51  ILE51       0.0022
    105  CG2        7.6620    0.0490    2.3120 C.3    51  ILE51       0.0023
    106  CD1       11.3720    0.6400    1.8600 C.3    51  ILE51       0.0001
    107  N          6.4450    3.5580    2.6660 N.am   52  TYR52      -0.1960
    108  CA         5.2790    3.9590    3.4430 C.3    52  TYR52       0.1771
    109  C          4.1970    2.8900    3.3720 C.2    52  TYR52       0.2620
    110  O          3.7990    2.4670    2.2870 O.2    52  TYR52      -0.2715
    111  CB         4.7310    5.2920    2.9350 C.3    52  TYR52       0.0574
    112  CG         5.7030    6.4420    3.0750 C.ar   52  TYR52      -0.0198
    113  CD1        6.7640    6.5950    2.1900 C.ar   52  TYR52      -0.0009
    114  CD2        5.5590    7.3770    4.0920 C.ar   52  TYR52      -0.0009
    115  CE1        7.6520    7.6460    2.3160 C.ar   52  TYR52       0.0417
    116  CE2        6.4410    8.4310    4.2240 C.ar   52  TYR52       0.0417
    117  CZ         7.4870    8.5610    3.3340 C.ar   52  TYR52       0.1957
    118  OH         8.3680    9.6090    3.4620 O.3    52  TYR52      -0.2866
    119  N          3.7340    2.4490    4.5340 N.am   53  THR53      -0.1937
    120  CA         2.7070    1.4190    4.6060 C.3    53  THR53       0.2028
    121  C          1.3890    1.9810    5.1350 C.2    53  THR53       0.2642
    122  O          1.3650    2.7120    6.1250 O.2    53  THR53      -0.2714
    123  CB         3.1650    0.2450    5.5000 C.3    53  THR53       0.1808
    124  OG1        3.9800   -0.6560    4.7420 O.3    53  THR53      -0.2208
    125  CG2        1.9780   -0.5110    6.0820 C.3    53  THR53       0.0379
    126  N          0.2940    1.6230    4.4690 N.am   54  TYR54      -0.1959
    127  CA        -1.0330    2.0760    4.8700 C.3    54  TYR54       0.1771
    128  C         -1.9220    0.8810    5.2000 C.2    54  TYR54       0.2619
    129  O         -1.8010   -0.1810    4.5890 O.2    54  TYR54      -0.2715
    130  CB        -1.6740    2.9180    3.7640 C.3    54  TYR54       0.0574
    131  CG        -0.6950    3.8070    3.0280 C.ar   54  TYR54      -0.0198
    132  CD1       -0.0880    4.8830    3.6660 C.ar   54  TYR54      -0.0009
    133  CD2       -0.3800    3.5720    1.6960 C.ar   54  TYR54      -0.0009
    134  CE1        0.8040    5.6990    2.9950 C.ar   54  TYR54       0.0417
    135  CE2        0.5120    4.3830    1.0190 C.ar   54  TYR54       0.0417
    136  CZ         1.1000    5.4450    1.6730 C.ar   54  TYR54       0.1957
    137  OH         1.9880    6.2540    1.0010 O.3    54  TYR54      -0.2866
    138  N         -2.8090    1.0570    6.1740 N.am   55  ARG55      -0.1977
    139  CA        -3.7070   -0.0130    6.5910 C.3    55  ARG55       0.1597
    140  C         -4.9410   -0.0870    5.6960 C.2    55  ARG55       0.2287
    141  O         -5.7850    0.8090    5.7060 O.2    55  ARG55      -0.2864
    142  CB        -4.1280    0.1870    8.0460 C.3    55  ARG55       0.0334
    143  CG        -3.0420   -0.1780    9.0450 C.3    55  ARG55       0.0492
    144  CD        -3.6310   -0.6070   10.3780 C.3    55  ARG55       0.2205
    145  NE        -3.2630    0.3060   11.4570 N.pl3  55  ARG55      -0.0865
    146  CZ        -2.1040    0.2510   12.1080 C.cat  55  ARG55       0.5346
    147  NH1       -1.2030   -0.6690   11.7900 N.pl3  55  ARG55       0.1354
    148  NH2       -1.8440    1.1200   13.0750 N.pl3  55  ARG55       0.1354
    149  N         -6.2810    3.6510    5.6430 N.3    67  GLU67      -0.1231
    150  CA        -5.9930    4.4620    6.8200 C.3    67  GLU67       0.1699
    151  C         -4.6120    5.1010    6.7120 C.2    67  GLU67       0.2593
    152  O         -3.5930    4.4160    6.7940 O.2    67  GLU67      -0.2718
    153  CB        -6.0770    3.6100    8.0880 C.3    67  GLU67       0.0402
    154  CG        -5.8890    4.4060    9.3700 C.3    67  GLU67       0.1161
    155  CD        -6.9390    4.0860   10.4160 C.2    67  GLU67       0.3649
    156  OE1       -7.0070    2.9170   10.8510 O.co2  67  GLU67      -0.2457
    157  OE2       -7.6940    5.0040   10.7990 O.co2  67  GLU67      -0.2457
    158  N         -4.5890    6.4170    6.5240 N.am   68  THR68      -0.1939
    159  CA        -3.3360    7.1500    6.4000 C.3    68  THR68       0.2028
    160  C         -3.0830    8.0180    7.6300 C.2    68  THR68       0.2642
    161  O         -3.6230    7.7580    8.7050 O.2    68  THR68      -0.2714
    162  CB        -3.3340    8.0400    5.1440 C.3    68  THR68       0.1808
    163  OG1       -4.3870    9.0080    5.2260 O.3    68  THR68      -0.2208
    164  CG2       -3.5070    7.2000    3.8870 C.3    68  THR68       0.0379
    165  N         -2.2590    9.0510    7.4650 N.am   69  ALA69      -0.1963
    166  CA        -1.9360    9.9550    8.5630 C.3    69  ALA69       0.1713
    167  C         -3.1530   10.7860    8.9660 C.2    69  ALA69       0.2458
    168  O         -4.0550   11.0080    8.1580 O.2    69  ALA69      -0.2730
    169  CB        -0.7790   10.8640    8.1700 C.3    69  ALA69       0.0333
    170  N         -3.1980   11.2580   10.2280 N.am   70  PRO70      -0.2727
    171  CA        -4.3160   12.0670   10.7290 C.3    70  PRO70       0.1402
    172  C         -4.5900   13.2830    9.8500 C.2    70  PRO70       0.2269
    173  O         -3.7560   13.6690    9.0300 O.2    70  PRO70      -0.2865
    174  CB        -3.8490   12.5090   12.1180 C.3    70  PRO70       0.0296
    175  CG        -2.8460   11.4880   12.5270 C.3    70  PRO70       0.0237
    176  CD        -2.1670   11.0420   11.2620 C.3    70  PRO70       0.0939
@<TRIPOS>BOND
     1    42    41    2
     2    41    40    1
     3    40    39    1
     4    40    43    1
     5    33    32    2
     6    43    44    1
     7    32    31    1
     8    83    84    1
     9    84    85    1
    10    46    44    1
    11    44    45    1
    12    31    34    1
    13    31    30    1
    14    90    89    2
    15    24    23    2
    16    34    35    1
    17    85    87   am
    18    85    86    2
    19    87    88    1
    20    47    48    1
    21   137   136    1
    22   135   136   ar
    23   135   133   ar
    24    30    23   am
    25    23    22    1
    26    38    37    1
    27   104   106    1
    28   104   103    1
    29    89    88    1
    30    89    99   am
    31   136   134   ar
    32   133   131   ar
    33    80    79    2
    34    35    36    1
    35    48    51    1
    36    48    49    1
    37    88    91    1
    38    21    22    1
    39    22    25    1
    40    37    36    1
    41   113   115   ar
    42   113   112   ar
    43   100   103    1
    44   100    99    1
    45   100   101    1
    46   110   109    2
    47   105   103    1
    48   115   117   ar
    49    79    78    1
    50    51    52    1
    51    91    92    1
    52   107   101   am
    53   107   108    1
    54   111   112    1
    55   111   108    1
    56    49    50    2
    57   134   132   ar
    58   131   132   ar
    59   131   130    1
    60   112   114   ar
    61   101   102    2
    62    15    14    2
    63   117   118    1
    64   117   116   ar
    65   109   108    1
    66   109   119   am
    67    94    92   ar
    68    94    96   ar
    69    25    26    1
    70    92    93   ar
    71    77    78    1
    72    78    81    1
    73   130   127    1
    74   164   162    1
    75    14    13    1
    76    52    53    1
    77   114   116   ar
    78    96    97   ar
    79    26    27    1
    80    93    95   ar
    81   126   127    1
    82   126   121   am
    83   119   120    1
    84    53    54    1
    85   129   128    2
    86   120   121    1
    87   120   123    1
    88    81    82    1
    89   124   123    1
    90   127   128    1
    91     4     3    2
    92    97    95   ar
    93    97    98    1
    94   121   122    2
    95   162   163    1
    96   162   159    1
    97   128   138   am
    98    13    12    1
    99    13    16    1
   100   123   125    1
   101   149   150    1
   102     3    12   am
   103     3     2    1
   104   140   141    2
   105   140   139    1
   106    27    28   ar
   107    27    29   ar
   108    54    55    2
   109    17    16    1
   110    17    18    1
   111   138   139    1
   112     2     1    1
   113     2     5    1
   114   159   158    1
   115   159   160    1
   116   158   151   am
   117    58    59    1
   118    56    55    1
   119   139   142    1
   120   151   152    2
   121   151   150    1
   122   150   153    1
   123    55    57    1
   124     6     5    1
   125     6     7    1
   126   165   160   am
   127   165   166    1
   128    18    20   ar
   129    18    19   ar
   130   160   161    2
   131    59    62    1
   132    59    60    1
   133   142   143    1
   134   153   154    1
   135   168   167    2
   136   169   166    1
   137    62    63    1
   138   166   167    1
   139     7     8    1
   140    60    61    2
   141   167   170   am
   142   173   172    2
   143   143   144    1
   144   154   155    1
   145     8     9    2
   146   172   171    1
   147    73    72    2
   148   170   171    1
   149   170   176    1
   150   144   145    1
   151   155   157   ar
   152   155   156   ar
   153   171   174    1
   154     9    10    1
   155     9    11    1
   156    72    71    1
   157   176   175    1
   158   145   146    2
   159   147   146    1
   160    74    71    1
   161    74    75    1
   162    74    76    1
   163    64    65    1
   164   146   148    1
   165   174   175    1
   166    71    70    1
   167    70    66   am
   168    69    68    1
   169    66    65    1
   170    66    67    2
   171    65    68    1
