@<TRIPOS>MOLECULE
tmp/1kaeA01.pdb
 104 99 0 0 0
SMALL
GASTEIGER

@<TRIPOS>ATOM
      1  N         18.8380  104.5910   69.7930 N.3   135  LEU135     -0.1245
      2  CA        17.5220  105.0450   69.3590 C.3   135  LEU135      0.1561
      3  C         16.9070  103.8900   68.5870 C.2   135  LEU135      0.2260
      4  O         16.8220  103.9190   67.3490 O.2   135  LEU135     -0.2867
      5  CB        17.6710  106.3240   68.4880 C.3   135  LEU135      0.0270
      6  CG        18.4770  107.5000   69.1180 C.3   135  LEU135      0.0019
      7  CD1       18.3400  108.8130   68.3160 C.3   135  LEU135      0.0001
      8  CD2       18.0150  107.7310   70.5550 C.3   135  LEU135      0.0001
      9  N         14.0350  103.1670   68.1440 N.3   137  SER137     -0.1202
     10  CA        12.8230  103.5260   67.4320 C.3   137  SER137      0.2020
     11  C         13.0950  103.5220   65.9320 C.2   137  SER137      0.2619
     12  O         12.2090  103.2280   65.1510 O.2   137  SER137     -0.2717
     13  CB        12.2950  104.9010   67.8900 C.3   137  SER137      0.2103
     14  OG        13.2360  105.9440   67.6780 O.3   137  SER137     -0.2182
     15  N         14.3170  103.8440   65.5140 N.am  138  THR138     -0.1952
     16  CA        14.6080  103.8730   64.0830 C.3   138  THR138      0.1897
     17  C         14.4830  102.4660   63.4840 C.2   138  THR138      0.2313
     18  O         14.1320  102.3230   62.3240 O.2   138  THR138     -0.2863
     19  CB        15.9720  104.4460   63.8660 C.3   138  THR138      0.1794
     20  OG1       15.9630  105.7820   64.3990 O.3   138  THR138     -0.2208
     21  CG2       16.3460  104.4810   62.3470 C.3   138  THR138      0.0378
     22  N         18.7810  116.1440   63.4950 N.3   232  SER232     -0.1217
     23  CA        17.3480  116.4650   63.5600 C.3   232  SER232      0.1889
     24  C         17.1830  117.9880   63.5960 C.2   232  SER232      0.2288
     25  O         17.9350  118.6960   64.3020 O.2   232  SER232     -0.2866
     26  CB        16.7550  115.8040   64.8280 C.3   232  SER232      0.2089
     27  OG        15.3250  115.9480   64.9110 O.3   232  SER232     -0.2183
     28  N         14.2510  118.6270   69.8710 N.3   254  GLN254     -0.1245
     29  CA        15.1960  118.2800   68.8150 C.3   254  GLN254      0.1566
     30  C         16.6120  118.8220   69.0830 C.2   254  GLN254      0.2260
     31  O         17.6010  118.1850   68.6930 O.2   254  GLN254     -0.2867
     32  CB        14.6700  118.6830   67.4540 C.3   254  GLN254      0.0367
     33  CG        13.1980  118.0910   67.1850 C.3   254  GLN254      0.0905
     34  CD        13.0500  116.6330   67.5970 C.2   254  GLN254      0.2608
     35  OE1       13.8370  115.7610   67.1980 O.2   254  GLN254     -0.2717
     36  NE2       12.0390  116.3550   68.4200 N.am  254  GLN254     -0.0878
     37  N         19.1450  116.2560   70.5170 N.3   257  HIS257     -0.1241
     38  CA        19.6990  115.1550   69.7190 C.3   257  HIS257      0.1621
     39  C         21.2250  115.2250   69.5580 C.2   257  HIS257      0.2264
     40  O         21.8780  114.1830   69.5670 O.2   257  HIS257     -0.2867
     41  CB        19.0750  115.0960   68.3120 C.3   257  HIS257      0.0745
     42  CG        17.8110  114.2920   68.2450 C.ar  257  HIS257      0.0817
     43  ND1       17.7720  112.9340   68.4890 N.ar  257  HIS257     -0.2268
     44  CD2       16.5460  114.6480   67.8970 C.ar  257  HIS257      0.1154
     45  CE1       16.5370  112.4820   68.2850 C.ar  257  HIS257      0.1986
     46  NE2       15.7750  113.5060   67.9230 N.ar  257  HIS257     -0.2212
     47  N         13.1810  119.7880   58.0700 N.3   320  GLU320     -0.1231
     48  CA        12.9300  118.3490   58.1660 C.3   320  GLU320      0.1699
     49  C         11.5750  118.1540   58.8950 C.2   320  GLU320      0.2592
     50  O         10.8010  117.2910   58.5190 O.2   320  GLU320     -0.2718
     51  CB        14.0190  117.7140   59.0180 C.3   320  GLU320      0.0402
     52  CG        13.8870  116.2020   59.1900 C.3   320  GLU320      0.1161
     53  CD        14.8700  115.6420   60.1960 C.2   320  GLU320      0.3649
     54  OE1       15.2850  116.3900   61.1130 O.co2 320  GLU320     -0.2457
     55  OE2       15.2110  114.4310   60.1090 O.co2 320  GLU320     -0.2457
     56  N         11.3630  118.8750   60.0040 N.am  321  HIS321     -0.1976
     57  CA        10.1140  118.7980   60.7640 C.3   321  HIS321      0.1656
     58  C          9.5600  120.2010   60.8270 C.2   321  HIS321      0.2291
     59  O         10.2970  121.1540   61.1050 O.2   321  HIS321     -0.2864
     60  CB        10.3320  118.3150   62.2010 C.3   321  HIS321      0.0771
     61  CG        10.9850  116.9600   62.3120 C.ar  321  HIS321      0.0820
     62  ND1       12.3470  116.7960   62.3940 N.ar  321  HIS321     -0.2267
     63  CD2       10.4590  115.7230   62.3400 C.ar  321  HIS321      0.1154
     64  CE1       12.6320  115.5070   62.4740 C.ar  321  HIS321      0.1986
     65  NE2       11.5000  114.8340   62.4450 N.ar  321  HIS321     -0.2212
     66  N          6.3570  117.1070   68.1420 N.3   350  GLU350     -0.1245
     67  CA         7.1170  116.3100   67.2210 C.3   350  GLU350      0.1567
     68  C          7.4250  114.9360   67.8500 C.2   350  GLU350      0.2260
     69  O          7.5110  113.9190   67.1420 O.2   350  GLU350     -0.2867
     70  CB         8.4300  117.0510   66.8550 C.3   350  GLU350      0.0388
     71  CG         9.3750  116.0450   66.1900 C.3   350  GLU350      0.1160
     72  CD        10.6480  116.6140   65.6200 C.2   350  GLU350      0.3649
     73  OE1       11.5570  115.7740   65.3720 O.co2 350  GLU350     -0.2457
     74  OE2       10.7470  117.8480   65.3870 O.co2 350  GLU350     -0.2457
     75  N          7.9530  111.3720   66.1340 N.3   354  ASP354     -0.1225
     76  CA         9.2620  110.7130   66.2800 C.3   354  ASP354      0.1805
     77  C          9.0680  109.2600   66.7770 C.2   354  ASP354      0.2597
     78  O          9.8280  108.3620   66.4120 O.2   354  ASP354     -0.2718
     79  CB        10.1460  111.4180   67.3500 C.3   354  ASP354      0.1424
     80  CG        10.8210  112.6830   66.8590 C.2   354  ASP354      0.3668
     81  OD1       10.6940  113.0570   65.6690 O.co2 354  ASP354     -0.2456
     82  OD2       11.5110  113.3260   67.7060 O.co2 354  ASP354     -0.2456
     83  N          8.0340  109.0290   67.5850 N.am  355  TYR355     -0.1976
     84  CA         7.8040  107.7130   68.2060 C.3   355  TYR355      0.1639
     85  C          6.6180  106.8270   67.8900 C.2   355  TYR355      0.2290
     86  O          6.7770  105.6030   67.8150 O.2   355  TYR355     -0.2864
     87  CB         7.7630  107.8710   69.7350 C.3   355  TYR355      0.0560
     88  CG         9.0790  108.2470   70.3210 C.ar  355  TYR355     -0.0198
     89  CD1        9.3350  109.5500   70.7460 C.ar  355  TYR355     -0.0009
     90  CD2       10.1000  107.2950   70.3950 C.ar  355  TYR355     -0.0009
     91  CE1       10.6120  109.9100   71.2250 C.ar  355  TYR355      0.0417
     92  CE2       11.3620  107.6280   70.9010 C.ar  355  TYR355      0.0417
     93  CZ        11.6060  108.9400   71.3060 C.ar  355  TYR355      0.1957
     94  OH        12.8660  109.2420   71.7990 O.3   355  TYR355     -0.2866
     95  N          9.9410  108.7850   60.8320 N.3   361  HIS361     -0.1241
     96  CA        10.8040  109.8690   61.3120 C.3   361  HIS361      0.1621
     97  C         12.1220  109.9910   60.5410 C.2   361  HIS361      0.2264
     98  O         12.9820  110.8250   60.8710 O.2   361  HIS361     -0.2867
     99  CB        11.0190  109.7540   62.8380 C.3   361  HIS361      0.0745
    100  CG        11.9790  108.6760   63.2960 C.ar  361  HIS361      0.0817
    101  ND1       11.8300  108.0620   64.5220 N.ar  361  HIS361     -0.2268
    102  CD2       13.1570  108.2110   62.7920 C.ar  361  HIS361      0.1154
    103  CE1       12.8640  107.2730   64.7640 C.ar  361  HIS361      0.1986
    104  NE2       13.6840  107.3430   63.7310 N.ar  361  HIS361     -0.2212
@<TRIPOS>BOND
     1    47    48    1
     2    48    49    1
     3    48    51    1
     4    50    49    2
     5    49    56   am
     6    51    52    1
     7    52    53    1
     8    56    57    1
     9    55    53   ar
    10    53    54   ar
    11    97    98    2
    12    97    96    1
    13    57    58    1
    14    57    60    1
    15    58    59    2
    16    95    96    1
    17    96    99    1
    18    60    61    1
    19    61    63   ar
    20    61    62   ar
    21    18    17    2
    22    63    65   ar
    23    21    19    1
    24    62    64   ar
    25    65    64   ar
    26   102   100   ar
    27   102   104   ar
    28    99   100    1
    29   100   101   ar
    30    17    16    1
    31    22    23    1
    32    23    24    1
    33    23    26    1
    34    24    25    2
    35   104   103   ar
    36    19    16    1
    37    19    20    1
    38    16    15    1
    39   101   103   ar
    40    26    27    1
    41    12    11    2
    42    73    72   ar
    43    74    72   ar
    44    15    11   am
    45    72    71    1
    46    81    80   ar
    47    11    10    1
    48    75    76    1
    49    71    70    1
    50    76    77    1
    51    76    79    1
    52    78    77    2
    53    77    83   am
    54    70    67    1
    55    80    79    1
    56    80    82   ar
    57    69    68    2
    58    33    32    1
    59    33    34    1
    60    35    34    2
    61    67    68    1
    62    67    66    1
    63     4     3    2
    64    10    13    1
    65    10     9    1
    66    32    29    1
    67    83    84    1
    68    34    36   am
    69    14    13    1
    70    86    85    2
    71    85    84    1
    72    44    46   ar
    73    44    42   ar
    74    46    45   ar
    75    84    87    1
    76    42    41    1
    77    42    43   ar
    78    45    43   ar
    79    41    38    1
    80     7     6    1
    81     5     6    1
    82     5     2    1
    83     3     2    1
    84    31    30    2
    85    29    30    1
    86    29    28    1
    87     6     8    1
    88     2     1    1
    89    39    40    2
    90    39    38    1
    91    38    37    1
    92    87    88    1
    93    88    90   ar
    94    88    89   ar
    95    90    92   ar
    96    89    91   ar
    97    92    93   ar
    98    91    93   ar
    99    93    94    1
