@<TRIPOS>MOLECULE
tmp/1kaeA02.pdb
 191 187 0 0 0
SMALL
GASTEIGER

@<TRIPOS>ATOM
      1  N         40.0600  107.6040   54.8740 N.3    33  THR33      -0.1218
      2  CA        39.8910  106.5480   55.8550 C.3    33  THR33       0.1862
      3  C         38.7360  105.6300   55.4640 C.2    33  THR33       0.2287
      4  O         38.8530  104.4140   55.5390 O.2    33  THR33      -0.2866
      5  CB        39.6400  107.1410   57.2350 C.3    33  THR33       0.1770
      6  OG1       40.7450  107.9850   57.5700 O.3    33  THR33      -0.2211
      7  CG2       39.5170  106.0490   58.2880 C.3    33  THR33       0.0375
      8  N         38.7880  101.5790   54.3890 N.3    37  ILE37      -0.1245
      9  CA        37.9350  100.6100   55.0690 C.3    37  ILE37       0.1561
     10  C         37.0910   99.8780   54.0370 C.2    37  ILE37       0.2260
     11  O         37.0300   98.6520   54.0630 O.2    37  ILE37      -0.2867
     12  CB        36.9930  101.2780   56.1000 C.3    37  ILE37       0.0252
     13  CG1       37.8010  101.7590   57.3060 C.3    37  ILE37       0.0019
     14  CG2       35.8790  100.2890   56.5410 C.3    37  ILE37       0.0019
     15  CD1       37.0040  102.6690   58.2330 C.3    37  ILE37       0.0001
     16  N         38.6990  100.0140   66.4780 N.3    56  PHE56      -0.1227
     17  CA        37.5230  100.8560   66.7220 C.3    56  PHE56       0.1736
     18  C         36.4680  100.1890   67.6050 C.2    56  PHE56       0.2595
     19  O         35.3520  100.6980   67.7160 O.2    56  PHE56      -0.2718
     20  CB        36.8250  101.1980   65.4000 C.3    56  PHE56       0.0547
     21  CG        37.7020  101.8730   64.3880 C.ar   56  PHE56      -0.0202
     22  CD1       37.5130  101.6270   63.0290 C.ar   56  PHE56      -0.0042
     23  CD2       38.6790  102.7810   64.7770 C.ar   56  PHE56      -0.0042
     24  CE1       38.2880  102.2810   62.0650 C.ar   56  PHE56      -0.0003
     25  CE2       39.4610  103.4400   63.8250 C.ar   56  PHE56      -0.0003
     26  CZ        39.2640  103.1900   62.4650 C.ar   56  PHE56      -0.0000
     27  N         36.8040   99.0690   68.2320 N.am   57  ASP57      -0.1974
     28  CA        35.8270   98.3350   69.0330 C.3    57  ASP57       0.1709
     29  C         36.4430   97.7090   70.3010 C.2    57  ASP57       0.2293
     30  O         37.6530   97.8090   70.5310 O.2    57  ASP57      -0.2864
     31  CB        35.2220   97.2410   68.1400 C.3    57  ASP57       0.1436
     32  CG        33.9470   96.6560   68.6990 C.2    57  ASP57       0.3671
     33  OD1       32.9500   97.4080   68.7810 O.co2  57  ASP57      -0.2456
     34  OD2       33.9410   95.4480   69.0460 O.co2  57  ASP57      -0.2456
     35  N         21.1740  100.0690   58.9390 N.3   127  TYR127     -0.1241
     36  CA        22.2330  100.4110   59.9000 C.3   127  TYR127      0.1605
     37  C         21.6120  101.1570   61.0800 C.2   127  TYR127      0.2264
     38  O         20.8170  102.1210   60.8860 O.2   127  TYR127     -0.2867
     39  CB        23.2870  101.3170   59.2480 C.3   127  TYR127      0.0534
     40  CG        24.4290  101.5810   60.2040 C.ar  127  TYR127     -0.0201
     41  CD1       25.3820  100.5820   60.4660 C.ar  127  TYR127     -0.0009
     42  CD2       24.4440  102.7290   60.9980 C.ar  127  TYR127     -0.0009
     43  CE1       26.3030  100.7080   61.4990 C.ar  127  TYR127      0.0417
     44  CE2       25.3820  102.8720   62.0570 C.ar  127  TYR127      0.0417
     45  CZ        26.3000  101.8400   62.2860 C.ar  127  TYR127      0.1957
     46  OH        27.2030  101.9330   63.3070 O.3   127  TYR127     -0.2866
     47  N         22.8030  103.0620   64.6990 N.3   129  PRO129     -0.2102
     48  CA        23.9300  103.3950   65.5780 C.3   129  PRO129      0.1504
     49  C         23.7230  102.7490   66.9690 C.2   129  PRO129      0.2576
     50  O         22.5930  102.5330   67.4100 O.2   129  PRO129     -0.2718
     51  CB        23.8960  104.9370   65.6280 C.3   129  PRO129      0.0282
     52  CG        23.2620  105.3220   64.3260 C.3   129  PRO129      0.0208
     53  CD        22.1660  104.2820   64.1610 C.3   129  PRO129      0.0893
     54  N         24.8040  102.4570   67.6750 N.am  130  GLY130     -0.1957
     55  CA        24.6600  101.8190   68.9820 C.3   130  GLY130      0.1869
     56  C         24.8190  102.6760   70.2370 C.2   130  GLY130      0.2309
     57  O         24.3300  103.8060   70.2950 O.2   130  GLY130     -0.2863
     58  N         18.8380  104.5910   69.7930 N.3   135  LEU135     -0.1245
     59  CA        17.5220  105.0450   69.3590 C.3   135  LEU135      0.1561
     60  C         16.9070  103.8900   68.5870 C.2   135  LEU135      0.2260
     61  O         16.8220  103.9190   67.3490 O.2   135  LEU135     -0.2867
     62  CB        17.6710  106.3240   68.4880 C.3   135  LEU135      0.0270
     63  CG        18.4770  107.5000   69.1180 C.3   135  LEU135      0.0019
     64  CD1       18.3400  108.8130   68.3160 C.3   135  LEU135      0.0001
     65  CD2       18.0150  107.7310   70.5550 C.3   135  LEU135      0.0001
     66  N         14.3170  103.8440   65.5140 N.3   138  THR138     -0.1218
     67  CA        14.6080  103.8730   64.0830 C.3   138  THR138      0.1862
     68  C         14.4830  102.4660   63.4840 C.2   138  THR138      0.2287
     69  O         14.1320  102.3230   62.3240 O.2   138  THR138     -0.2866
     70  CB        15.9720  104.4460   63.8660 C.3   138  THR138      0.1770
     71  OG1       15.9630  105.7820   64.3990 O.3   138  THR138     -0.2211
     72  CG2       16.3460  104.4810   62.3470 C.3   138  THR138      0.0375
     73  N         26.7200   98.3580   65.9720 N.3   158  PRO158     -0.2116
     74  CA        27.9750   98.1110   66.7120 C.3   158  PRO158      0.1372
     75  C         27.8110   97.2650   67.9830 C.2   158  PRO158      0.2244
     76  O         26.9090   97.4870   68.7950 O.2   158  PRO158     -0.2868
     77  CB        28.4990   99.5170   67.0430 C.3   158  PRO158      0.0268
     78  CG        27.6350  100.4880   66.2190 C.3   158  PRO158      0.0207
     79  CD        26.3200   99.7810   66.0130 C.3   158  PRO158      0.0892
     80  N         29.7880   97.6910   63.1480 N.3   181  GLY181     -0.1210
     81  CA        29.3370   99.0720   63.0650 C.3   181  GLY181      0.1956
     82  C         30.1810   99.9570   62.1680 C.2   181  GLY181      0.2612
     83  O         31.0920   99.4770   61.5070 O.2   181  GLY181     -0.2717
     84  N         29.8760  101.2500   62.1350 N.am  182  GLY182     -0.1942
     85  CA        30.6780  102.1810   61.3520 C.3   182  GLY182      0.2014
     86  C         30.7680  101.9820   59.8570 C.2   182  GLY182      0.2639
     87  O         29.9140  101.3600   59.2130 O.2   182  GLY182     -0.2714
     88  N         31.8140  102.5420   59.2750 N.am  183  ALA183     -0.1963
     89  CA        32.0130  102.4230   57.8390 C.3   183  ALA183      0.1728
     90  C         32.1870  100.9630   57.4510 C.2   183  ALA183      0.2616
     91  O         31.8060  100.5670   56.3570 O.2   183  ALA183     -0.2715
     92  CB        33.2280  103.2060   57.4190 C.3   183  ALA183      0.0334
     93  N         32.7480  100.1440   58.3320 N.am  184  GLN184     -0.1977
     94  CA        32.9250   98.7490   57.9390 C.3   184  GLN184      0.1601
     95  C         31.5810   98.0280   57.8220 C.2   184  GLN184      0.2287
     96  O         31.4110   97.1220   56.9980 O.2   184  GLN184     -0.2864
     97  CB        33.8860   98.0060   58.9100 C.3   184  GLN184      0.0394
     98  CG        33.4830   97.9840   60.3710 C.3   184  GLN184      0.0908
     99  CD        33.9850   99.2040   61.1510 C.2   184  GLN184      0.2608
    100  OE1       34.3790  100.2120   60.5670 O.2   184  GLN184     -0.2717
    101  NE2       33.9680   99.1070   62.4840 N.am  184  GLN184     -0.0878
    102  N         20.7810  106.1080   59.7280 N.3   205  PRO205     -0.2102
    103  CA        21.5900  107.2540   60.1140 C.3   205  PRO205      0.1504
    104  C         22.9020  106.8210   60.7260 C.2   205  PRO205      0.2576
    105  O         23.0500  105.6650   61.0990 O.2   205  PRO205     -0.2718
    106  CB        20.7110  107.9210   61.1470 C.3   205  PRO205      0.0282
    107  CG        20.2650  106.7130   61.9670 C.3   205  PRO205      0.0208
    108  CD        20.0570  105.5870   60.9150 C.3   205  PRO205      0.0893
    109  N         23.8390  107.7650   60.8620 N.am  206  GLY206     -0.1943
    110  CA        25.1120  107.4260   61.4710 C.3   206  GLY206      0.2014
    111  C         26.0410  108.6090   61.6080 C.2   206  GLY206      0.2639
    112  O         25.7420  109.7250   61.1310 O.2   206  GLY206     -0.2714
    113  N         27.1720  108.3630   62.2660 N.am  207  ASN207     -0.1958
    114  CA        28.1780  109.3930   62.4560 C.3   207  ASN207      0.1819
    115  C         28.8210  109.7840   61.1290 C.2   207  ASN207      0.2621
    116  O         28.3880  109.3590   60.0600 O.2   207  ASN207     -0.2715
    117  CB        29.2410  108.9510   63.4730 C.3   207  ASN207      0.1195
    118  CG        30.0870  107.7630   62.9950 C.2   207  ASN207      0.2630
    119  OD1       30.3050  107.5730   61.8070 O.2   207  ASN207     -0.2716
    120  ND2       30.5790  106.9770   63.9490 N.am  207  ASN207     -0.0877
    121  N         29.8750  110.5860   61.1800 N.am  208  ALA208     -0.1963
    122  CA        30.4950  111.0260   59.9420 C.3   208  ALA208      0.1728
    123  C         30.9970  109.8800   59.0720 C.2   208  ALA208      0.2616
    124  O         30.8140  109.8940   57.8640 O.2   208  ALA208     -0.2715
    125  CB        31.6370  112.0120   60.2550 C.3   208  ALA208      0.0334
    126  N         31.6280  108.8830   59.6880 N.am  209  PHE209     -0.1960
    127  CA        32.1840  107.7550   58.9320 C.3   209  PHE209      0.1771
    128  C         31.0800  106.9460   58.2880 C.2   209  PHE209      0.2619
    129  O         31.1490  106.5990   57.1150 O.2   209  PHE209     -0.2715
    130  CB        33.0420  106.8920   59.8620 C.3   209  PHE209      0.0574
    131  CG        34.1820  107.6510   60.4930 C.ar  209  PHE209     -0.0200
    132  CD1       34.0150  108.3070   61.7100 C.ar  209  PHE209     -0.0042
    133  CD2       35.4070  107.7560   59.8400 C.ar  209  PHE209     -0.0042
    134  CE1       35.0510  109.0620   62.2660 C.ar  209  PHE209     -0.0003
    135  CE2       36.4490  108.5040   60.3780 C.ar  209  PHE209     -0.0003
    136  CZ        36.2730  109.1590   61.5920 C.ar  209  PHE209     -0.0000
    137  N         30.0380  106.6590   59.0470 N.am  210  VAL210     -0.1977
    138  CA        28.9150  105.9230   58.4820 C.3   210  VAL210      0.1596
    139  C         28.3280  106.7040   57.3010 C.2   210  VAL210      0.2287
    140  O         28.0650  106.1480   56.2240 O.2   210  VAL210     -0.2864
    141  CB        27.8160  105.7080   59.5430 C.3   210  VAL210      0.0276
    142  CG1       26.5650  105.1050   58.8910 C.3   210  VAL210      0.0022
    143  CG2       28.3640  104.8150   60.6680 C.3   210  VAL210      0.0022
    144  N         20.9300  113.4890   58.4220 N.3   230  GLY230     -0.1210
    145  CA        21.4210  114.7480   58.9800 C.3   230  GLY230      0.1940
    146  C         20.9000  114.9500   60.3960 C.2   230  GLY230      0.2454
    147  O         19.9700  114.2210   60.8200 O.2   230  GLY230     -0.2732
    148  N         21.4690  115.9090   61.1520 N.am  231  PRO231     -0.2717
    149  CA        21.0250  116.1730   62.5390 C.3   231  PRO231      0.1535
    150  C         19.5500  116.5840   62.5040 C.2   231  PRO231      0.2599
    151  O         19.1350  117.2860   61.5920 O.2   231  PRO231     -0.2715
    152  CB        21.8780  117.3550   63.0160 C.3   231  PRO231      0.0310
    153  CG        22.9450  117.5770   61.9040 C.3   231  PRO231      0.0237
    154  CD        22.3690  116.9650   60.6370 C.3   231  PRO231      0.0939
    155  N         18.7810  116.1440   63.4950 N.am  232  SER232     -0.1950
    156  CA        17.3480  116.4650   63.5600 C.3   232  SER232      0.1924
    157  C         17.1830  117.9880   63.5960 C.2   232  SER232      0.2314
    158  O         17.9350  118.6960   64.3020 O.2   232  SER232     -0.2863
    159  CB        16.7550  115.8040   64.8280 C.3   232  SER232      0.2116
    160  OG        15.3250  115.9480   64.9110 O.3   232  SER232     -0.2180
    161  N         19.1450  116.2560   70.5170 N.3   257  HIS257     -0.1226
    162  CA        19.6990  115.1550   69.7190 C.3   257  HIS257      0.1752
    163  C         21.2250  115.2250   69.5580 C.2   257  HIS257      0.2596
    164  O         21.8780  114.1830   69.5670 O.2   257  HIS257     -0.2718
    165  CB        19.0750  115.0960   68.3120 C.3   257  HIS257      0.0759
    166  CG        17.8110  114.2920   68.2450 C.ar  257  HIS257      0.0818
    167  ND1       17.7720  112.9340   68.4890 N.ar  257  HIS257     -0.2268
    168  CD2       16.5460  114.6480   67.8970 C.ar  257  HIS257      0.1154
    169  CE1       16.5370  112.4820   68.2850 C.ar  257  HIS257      0.1986
    170  NE2       15.7750  113.5060   67.9230 N.ar  257  HIS257     -0.2212
    171  N         21.7720  116.4270   69.4150 N.am  258  GLY258     -0.1957
    172  CA        23.2070  116.5750   69.1850 C.3   258  GLY258      0.1869
    173  C         23.5980  118.0130   68.9550 C.2   258  GLY258      0.2309
    174  O         22.7390  118.8580   68.6700 O.2   258  GLY258     -0.2863
    175  N          9.9410  108.7850   60.8320 N.3   361  HIS361     -0.1226
    176  CA        10.8040  109.8690   61.3120 C.3   361  HIS361      0.1752
    177  C         12.1220  109.9910   60.5410 C.2   361  HIS361      0.2595
    178  O         12.9820  110.8250   60.8710 O.2   361  HIS361     -0.2718
    179  CB        11.0190  109.7540   62.8380 C.3   361  HIS361      0.0759
    180  CG        11.9790  108.6760   63.2960 C.ar  361  HIS361      0.0818
    181  ND1       11.8300  108.0620   64.5220 N.ar  361  HIS361     -0.2268
    182  CD2       13.1570  108.2110   62.7920 C.ar  361  HIS361      0.1154
    183  CE1       12.8640  107.2730   64.7640 C.ar  361  HIS361      0.1986
    184  NE2       13.6840  107.3430   63.7310 N.ar  361  HIS361     -0.2212
    185  N         12.2870  109.1370   59.5360 N.am  362  VAL362     -0.1980
    186  CA        13.4900  109.2050   58.6750 C.3   362  VAL362      0.1595
    187  C         13.0500  110.1760   57.5660 C.2   362  VAL362      0.2287
    188  O         12.1900  109.8560   56.7240 O.2   362  VAL362     -0.2864
    189  CB        13.8570  107.8060   58.1320 C.3   362  VAL362      0.0276
    190  CG1       15.0040  107.9270   57.0720 C.3   362  VAL362      0.0022
    191  CG2       14.3250  106.9190   59.3300 C.3   362  VAL362      0.0022
@<TRIPOS>BOND
     1    10    11    2
     2    10     9    1
     3     8     9    1
     4     1     2    1
     5     9    12    1
     6     3     4    2
     7     3     2    1
     8     2     5    1
     9    12    14    1
    10    12    13    1
    11   140   139    2
    12    91    90    2
    13   188   187    2
    14    96    95    2
    15   190   189    1
    16   129   128    2
    17     5     6    1
    18     5     7    1
    19   139   138    1
    20    13    15    1
    21    92    89    1
    22    90    89    1
    23    90    93   am
    24   187   186    1
    25    95    94    1
    26    89    88    1
    27   124   123    2
    28    94    93    1
    29    94    97    1
    30   189   186    1
    31   189   191    1
    32   128   127    1
    33   128   137   am
    34   144   145    1
    35   138   137    1
    36   138   141    1
    37   186   185    1
    38   142   141    1
    39    97    98    1
    40   127   126    1
    41   127   130    1
    42    35    36    1
    43   145   146    1
    44   123   126   am
    45   123   122    1
    46    87    86    2
    47    39    36    1
    48    39    40    1
    49    88    86   am
    50   185   177   am
    51   141   143    1
    52   102   103    1
    53   102   108    1
    54   133   135   ar
    55   133   131   ar
    56    86    85    1
    57   130   131    1
    58    36    37    1
    59   122   125    1
    60   122   121    1
    61   116   115    2
    62   103   104    1
    63   103   106    1
    64    40    41   ar
    65    40    42   ar
    66    98    99    1
    67   135   136   ar
    68   146   147    2
    69   146   148   am
    70    41    43   ar
    71   131   132   ar
    72   177   178    2
    73   177   176    1
    74   100    99    2
    75   154   148    1
    76   154   153    1
    77   104   109   am
    78   104   105    2
    79   175   176    1
    80   109   110    1
    81    38    37    2
    82   108   107    1
    83    42    44   ar
    84   115   121   am
    85   115   114    1
    86   112   111    2
    87   106   107    1
    88    99   101   am
    89   148   149    1
    90   176   179    1
    91    85    84    1
    92   110   111    1
    93    43    45   ar
    94    83    82    2
    95   136   134   ar
    96   151   150    2
    97   111   113   am
    98   132   134   ar
    99   119   118    2
   100   153   152    1
   101    44    45   ar
   102    24    26   ar
   103    24    22   ar
   104    84    82   am
   105    82    81    1
   106   113   114    1
   107    45    46    1
   108    69    68    2
   109    72    70    1
   110   114   117    1
   111    26    25   ar
   112   150   149    1
   113   150   155   am
   114   149   152    1
   115   182   180   ar
   116   182   184   ar
   117   179   180    1
   118   118   117    1
   119   118   120   am
   120    22    21   ar
   121    81    80    1
   122   180   181   ar
   123    68    67    1
   124   155   156    1
   125   156   157    1
   126   156   159    1
   127   157   158    2
   128   184   183   ar
   129    25    23   ar
   130    70    67    1
   131    70    71    1
   132    67    66    1
   133    53    52    1
   134    53    47    1
   135    52    51    1
   136    21    23   ar
   137    21    20    1
   138   181   183   ar
   139    47    48    1
   140   159   160    1
   141    20    17    1
   142    48    51    1
   143    48    49    1
   144    73    79    1
   145    73    74    1
   146    79    78    1
   147    78    77    1
   148    16    17    1
   149    74    77    1
   150    74    75    1
   151    17    18    1
   152    49    50    2
   153    49    54   am
   154    61    60    2
   155    18    19    2
   156    18    27   am
   157    54    55    1
   158   168   170   ar
   159   168   166   ar
   160   170   169   ar
   161    75    76    2
   162    31    32    1
   163    31    28    1
   164    27    28    1
   165   166   165    1
   166   166   167   ar
   167   169   167   ar
   168   165   162    1
   169    64    63    1
   170    62    63    1
   171    62    59    1
   172    60    59    1
   173   174   173    2
   174    32    33   ar
   175    32    34   ar
   176   173   172    1
   177    55    56    1
   178    28    29    1
   179    63    65    1
   180   172   171    1
   181    59    58    1
   182   171   163   am
   183   163   164    2
   184   163   162    1
   185   162   161    1
   186    56    57    2
   187    29    30    2
