@<TRIPOS>MOLECULE
tmp/1kakA00.pdb
 135 130 0 0 0
SMALL
GASTEIGER

@<TRIPOS>ATOM
      1  N         32.8330   25.2980    4.1800 N.3    44  ARG44      -0.1231
      2  CA        32.6490   24.2590    3.1790 C.3    44  ARG44       0.1694
      3  C         31.6840   24.7280    2.0950 C.2    44  ARG44       0.2592
      4  O         31.8400   24.3700    0.9310 O.2    44  ARG44      -0.2718
      5  CB        32.1270   22.9780    3.8330 C.3    44  ARG44       0.0321
      6  CG        31.8030   21.8700    2.8580 C.3    44  ARG44       0.0489
      7  CD        31.4480   20.5860    3.5940 C.3    44  ARG44       0.2205
      8  NE        32.6000   19.9930    4.2720 N.pl3  44  ARG44      -0.0865
      9  CZ        33.6170   19.4100    3.6460 C.cat  44  ARG44       0.5346
     10  NH1       33.6240   19.3380    2.3240 N.pl3  44  ARG44       0.1354
     11  NH2       34.6280   18.9000    4.3370 N.pl3  44  ARG44       0.1354
     12  N         30.6940   25.5300    2.4800 N.am   45  TYR45      -0.1962
     13  CA        29.7070   26.0560    1.5330 C.3    45  TYR45       0.1771
     14  C         29.5440   27.5630    1.6880 C.2    45  TYR45       0.2619
     15  O         29.4560   28.0840    2.8010 O.2    45  TYR45      -0.2715
     16  CB        28.3400   25.3840    1.7320 C.3    45  TYR45       0.0574
     17  CG        28.3900   23.8840    1.6310 C.ar   45  TYR45      -0.0198
     18  CD1       28.1990   23.0780    2.7600 C.ar   45  TYR45      -0.0009
     19  CD2       28.6820   23.2640    0.4200 C.ar   45  TYR45      -0.0009
     20  CE1       28.3040   21.6860    2.6830 C.ar   45  TYR45       0.0417
     21  CE2       28.7880   21.8790    0.3340 C.ar   45  TYR45       0.0417
     22  CZ        28.6010   21.0990    1.4670 C.ar   45  TYR45       0.1957
     23  OH        28.7350   19.7340    1.3720 O.3    45  TYR45      -0.2866
     24  N         29.4950   28.2580    0.5600 N.am   46  ARG46      -0.1963
     25  CA        29.3430   29.7050    0.5680 C.3    46  ARG46       0.1729
     26  C         28.0670   30.1570    1.2710 C.2    46  ARG46       0.2616
     27  O         28.0760   31.1080    2.0510 O.2    46  ARG46      -0.2715
     28  CB        29.3180   30.2470   -0.8630 C.3    46  ARG46       0.0348
     29  CG        28.9500   31.7260   -0.9240 C.3    46  ARG46       0.0492
     30  CD        28.4960   32.1300   -2.3100 C.3    46  ARG46       0.2205
     31  NE        27.4030   31.2870   -2.7870 N.pl3  46  ARG46      -0.0865
     32  CZ        26.8700   31.3860   -3.9990 C.cat  46  ARG46       0.5346
     33  NH1       27.3300   32.2930   -4.8520 N.pl3  46  ARG46       0.1354
     34  NH2       25.8880   30.5720   -4.3600 N.pl3  46  ARG46       0.1354
     35  N         26.9710   29.4660    0.9870 N.am   47  ASP47      -0.1957
     36  CA        25.6770   29.8190    1.5480 C.3    47  ASP47       0.1840
     37  C         25.3510   29.3240    2.9520 C.2    47  ASP47       0.2621
     38  O         24.2780   29.6220    3.4680 O.2    47  ASP47      -0.2715
     39  CB        24.5930   29.3720    0.5740 C.3    47  ASP47       0.1450
     40  CG        24.6750   30.1090   -0.7550 C.2    47  ASP47       0.3671
     41  OD1       24.1010   29.6020   -1.7430 O.co2  47  ASP47      -0.2456
     42  OD2       25.3060   31.1980   -0.8070 O.co2  47  ASP47      -0.2456
     43  N         26.2550   28.5720    3.5710 N.am   48  VAL48      -0.1977
     44  CA        26.0120   28.0820    4.9190 C.3    48  VAL48       0.1596
     45  C         27.0510   28.6820    5.8510 C.2    48  VAL48       0.2287
     46  O         28.2250   28.3150    5.8240 O.2    48  VAL48      -0.2864
     47  CB        26.0850   26.5370    5.0010 C.3    48  VAL48       0.0276
     48  CG1       25.8980   26.0840    6.4390 C.3    48  VAL48       0.0022
     49  CG2       25.0170   25.9140    4.1080 C.3    48  VAL48       0.0022
     50  N         32.1070   14.6680    1.1520 N.3   119  LYS119     -0.1245
     51  CA        31.1840   15.4920    1.9220 C.3   119  LYS119      0.1561
     52  C         31.8610   15.9270    3.2170 C.2   119  LYS119      0.2260
     53  O         31.3240   16.7420    3.9700 O.2   119  LYS119     -0.2867
     54  CB        29.9200   14.6920    2.2500 C.3   119  LYS119      0.0271
     55  CG        29.1450   14.2210    1.0330 C.3   119  LYS119      0.0035
     56  CD        28.4710   15.3760    0.3040 C.3   119  LYS119      0.0206
     57  CE        27.4960   16.1120    1.2160 C.3   119  LYS119      0.1093
     58  NZ        26.5140   16.9380    0.4640 N.3   119  LYS119     -0.1314
     59  N         22.8840   12.6390    2.2070 N.3   180  ASP180     -0.1225
     60  CA        22.7380   14.0900    2.1840 C.3   180  ASP180      0.1805
     61  C         21.3210   14.3700    1.7170 C.2   180  ASP180      0.2597
     62  O         20.8870   13.8160    0.7100 O.2   180  ASP180     -0.2718
     63  CB        23.7010   14.7310    1.1860 C.3   180  ASP180      0.1424
     64  CG        25.1110   14.2360    1.3380 C.2   180  ASP180      0.3668
     65  OD1       25.6730   14.3400    2.4500 O.co2 180  ASP180     -0.2456
     66  OD2       25.6650   13.7430    0.3340 O.co2 180  ASP180     -0.2456
     67  N         20.5990   15.2130    2.4430 N.am  181  PHE181     -0.1976
     68  CA        19.2370   15.5530    2.0600 C.3   181  PHE181      0.1639
     69  C         18.3080   14.3540    2.1200 C.2   181  PHE181      0.2290
     70  O         17.2090   14.3740    1.5620 O.2   181  PHE181     -0.2864
     71  CB        19.2370   16.1420    0.6570 C.3   181  PHE181      0.0560
     72  CG        20.1430   17.3310    0.5130 C.ar  181  PHE181     -0.0200
     73  CD1       19.9050   18.4980    1.2500 C.ar  181  PHE181     -0.0042
     74  CD2       21.2290   17.2920   -0.3540 C.ar  181  PHE181     -0.0042
     75  CE1       20.7310   19.6010    1.1190 C.ar  181  PHE181     -0.0003
     76  CE2       22.0630   18.3980   -0.4910 C.ar  181  PHE181     -0.0003
     77  CZ        21.8150   19.5540    0.2430 C.ar  181  PHE181     -0.0000
     78  N         27.3550   17.2570    9.9940 N.3   214  CYS214     -0.1221
     79  CA        27.0820   16.4220    8.8360 C.3   214  CYS214      0.1808
     80  C         28.0240   16.9710    7.7790 C.2   214  CYS214      0.2602
     81  O         29.2360   16.9460    7.9680 O.2   214  CYS214     -0.2717
     82  CB        25.6170   16.5460    8.3940 C.3   214  CYS214      0.0970
     83  SG        24.7810   18.0680    8.8970 S.3   214  CYS214     -0.0800
     84  N         27.4880   17.4760    6.6760 N.am  215  SER215     -0.1938
     85  CA        28.3420   18.0470    5.6420 C.3   215  SER215      0.2055
     86  C         28.3570   19.5710    5.8320 C.2   215  SER215      0.2642
     87  O         29.4180   20.1860    6.0030 O.2   215  SER215     -0.2714
     88  CB        27.8090   17.6910    4.2520 C.3   215  SER215      0.2130
     89  OG        28.6930   18.1360    3.2360 O.3   215  SER215     -0.2179
     90  N         27.1690   20.1670    5.8150 N.am  216  ALA216     -0.1977
     91  CA        27.0250   21.6030    5.9890 C.3   216  ALA216      0.1597
     92  C         26.6910   21.9040    7.4390 C.2   216  ALA216      0.2287
     93  O         26.7740   23.0550    7.8870 O.2   216  ALA216     -0.2864
     94  CB        25.9260   22.1290    5.0880 C.3   216  ALA216      0.0319
     95  N         23.6350   21.4920    8.9590 N.3   218  ILE218     -0.1231
     96  CA        22.3310   22.1370    9.1310 C.3   218  ILE218      0.1692
     97  C         21.1630   21.1830    8.8680 C.2   218  ILE218      0.2593
     98  O         20.1440   21.2310    9.5510 O.2   218  ILE218     -0.2718
     99  CB        22.1980   23.3870    8.2020 C.3   218  ILE218      0.0266
    100  CG1       22.3310   22.9730    6.7300 C.3   218  ILE218      0.0019
    101  CG2       23.2850   24.4160    8.5560 C.3   218  ILE218      0.0020
    102  CD1       22.2720   24.1280    5.7430 C.3   218  ILE218      0.0001
    103  N         21.3230   20.3020    7.8860 N.am  219  GLY219     -0.1942
    104  CA        20.2670   19.3700    7.5390 C.3   219  GLY219      0.2014
    105  C         20.1310   18.2070    8.4970 C.2   219  GLY219      0.2638
    106  O         19.1860   18.1480    9.2930 O.2   219  GLY219     -0.2714
    107  N         21.0690   17.2690    8.4150 N.am  220  ARG220     -0.1977
    108  CA        21.0500   16.1050    9.2870 C.3   220  ARG220      0.1597
    109  C         21.2800   16.5520   10.7210 C.2   220  ARG220      0.2287
    110  O         20.5670   16.1300   11.6280 O.2   220  ARG220     -0.2864
    111  CB        22.0990   15.0900    8.8210 C.3   220  ARG220      0.0334
    112  CG        21.6190   14.2680    7.6190 C.3   220  ARG220      0.0492
    113  CD        22.7520   13.6110    6.8310 C.3   220  ARG220      0.2205
    114  NE        23.5260   14.5930    6.0770 N.pl3 220  ARG220     -0.0865
    115  CZ        24.4940   14.2990    5.2140 C.cat 220  ARG220      0.5346
    116  NH1       24.8270   13.0360    4.9770 N.pl3 220  ARG220      0.1354
    117  NH2       25.1390   15.2780    4.5910 N.pl3 220  ARG220      0.1354
    118  N         16.9310   20.4670    6.0980 N.3   261  GLN261     -0.1245
    119  CA        17.0070   20.9040    4.7110 C.3   261  GLN261      0.1566
    120  C         15.9300   20.4140    3.7540 C.2   261  GLN261      0.2260
    121  O         15.8570   20.8720    2.6190 O.2   261  GLN261     -0.2867
    122  CB        18.3810   20.5260    4.1680 C.3   261  GLN261      0.0367
    123  CG        19.5020   21.3270    4.7840 C.3   261  GLN261      0.0905
    124  CD        19.5780   22.6900    4.1650 C.2   261  GLN261      0.2608
    125  OE1       19.8350   22.8140    2.9720 O.2   261  GLN261     -0.2717
    126  NE2       19.3370   23.7260    4.9610 N.am  261  GLN261     -0.0878
    127  N         12.7150   15.6170    5.8860 N.3   265  GLN265     -0.1245
    128  CA        13.4330   15.5240    7.1500 C.3   265  GLN265      0.1566
    129  C         12.5620   16.1650    8.2230 C.2   265  GLN265      0.2260
    130  O         12.6200   15.7880    9.3890 O.2   265  GLN265     -0.2867
    131  CB        14.7730   16.2630    7.0930 C.3   265  GLN265      0.0367
    132  CG        15.7640   15.7230    6.0880 C.3   265  GLN265      0.0905
    133  CD        17.0350   16.5420    6.0530 C.2   265  GLN265      0.2608
    134  OE1       17.0020   17.7660    6.2030 O.2   265  GLN265     -0.2717
    135  NE2       18.1640   15.8760    5.8380 N.am  265  GLN265     -0.0878
@<TRIPOS>BOND
     1    33    32    1
     2    34    32    1
     3    32    31    2
     4    31    30    1
     5    30    29    1
     6    41    40   ar
     7    29    28    1
     8    28    25    1
     9    42    40   ar
    10    40    39    1
    11    76    74   ar
    12    76    77   ar
    13    74    72   ar
    14    77    75   ar
    15    56    55    1
    16    56    57    1
    17    66    64   ar
    18    21    19   ar
    19    21    22   ar
    20    19    17   ar
    21    58    57    1
    22    72    71    1
    23    72    73   ar
    24    24    25    1
    25    24    14   am
    26    25    26    1
    27    39    36    1
    28    71    68    1
    29    62    61    2
    30     4     3    2
    31    35    26   am
    32    35    36    1
    33    55    54    1
    34    75    73   ar
    35    50    51    1
    36    63    64    1
    37    63    60    1
    38    26    27    2
    39    64    65   ar
    40    23    22    1
    41    22    20   ar
    42    13    14    1
    43    13    16    1
    44    13    12    1
    45    36    37    1
    46    70    69    2
    47    17    16    1
    48    17    18   ar
    49    14    15    2
    50    61    60    1
    51    61    67   am
    52    51    54    1
    53    51    52    1
    54    68    69    1
    55    68    67    1
    56     3    12   am
    57     3     2    1
    58    60    59    1
    59    10     9    1
    60   121   120    2
    61    20    18   ar
    62     6     7    1
    63     6     5    1
    64    37    38    2
    65    37    43   am
    66   125   124    2
    67     2     5    1
    68     2     1    1
    69    52    53    2
    70    89    88    1
    71    43    44    1
    72     7     8    1
    73     9     8    2
    74     9    11    1
    75   120   119    1
    76    49    47    1
    77   124   123    1
    78   124   126   am
    79   122   119    1
    80   122   123    1
    81    88    85    1
    82   117   115    1
    83   119   118    1
    84    44    47    1
    85    44    45    1
    86   116   115    1
    87    47    48    1
    88    94    91    1
    89   115   114    2
    90    85    86    1
    91    85    84    1
    92   102   100    1
    93    90    86   am
    94    90    91    1
    95    46    45    2
    96    86    87    2
    97   135   133   am
    98   127   128    1
    99    91    92    1
   100   133   132    1
   101   133   134    2
   102   114   113    1
   103   132   131    1
   104    84    80   am
   105   100    99    1
   106   113   112    1
   107   131   128    1
   108   128   129    1
   109    92    93    2
   110   104   103    1
   111   104   105    1
   112   112   111    1
   113    80    81    2
   114    80    79    1
   115   103    97   am
   116    99   101    1
   117    99    96    1
   118   129   130    2
   119    82    79    1
   120    82    83    1
   121   107   105   am
   122   107   108    1
   123   105   106    2
   124   111   108    1
   125    79    78    1
   126    97    96    1
   127    97    98    2
   128    95    96    1
   129   108   109    1
   130   109   110    2
