@<TRIPOS>MOLECULE
tmp/1kaoA00.pdb
 162 157 0 0 0
SMALL
GASTEIGER

@<TRIPOS>ATOM
      1  N        -11.8490   -2.6880   14.0380 N.3    12  GLY12      -0.1210
      2  CA       -12.2270   -3.1390   12.6900 C.3    12  GLY12       0.1956
      3  C        -12.4890   -1.9260   11.7700 C.2    12  GLY12       0.2612
      4  O        -13.1190   -0.9620   12.1310 O.2    12  GLY12      -0.2717
      5  N        -11.8250   -1.9860   10.6140 N.am   13  GLY13      -0.1942
      6  CA       -12.1170   -1.0580    9.5670 C.3    13  GLY13       0.2014
      7  C        -11.3190    0.2410    9.6010 C.2    13  GLY13       0.2639
      8  O        -11.5220    1.1320    8.7460 O.2    13  GLY13      -0.2714
      9  N        -10.3050    0.3120   10.4950 N.am   14  VAL14      -0.1963
     10  CA        -9.5120    1.5340   10.6090 C.3    14  VAL14       0.1727
     11  C         -8.3860    1.5880    9.5810 C.2    14  VAL14       0.2617
     12  O         -7.8700    2.6920    9.3320 O.2    14  VAL14      -0.2715
     13  CB        -8.8950    1.7890   12.0200 C.3    14  VAL14       0.0290
     14  CG1      -10.0330    1.9610   13.0790 C.3    14  VAL14       0.0023
     15  CG2       -7.9170    0.7220   12.4300 C.3    14  VAL14       0.0023
     16  N         -8.0200    0.4360    9.0450 N.am   15  GLY15      -0.1940
     17  CA        -6.9850    0.4250    8.0210 C.3    15  GLY15       0.2014
     18  C         -5.7020   -0.2570    8.4150 C.2    15  GLY15       0.2639
     19  O         -4.6720    0.0450    7.8290 O.2    15  GLY15      -0.2714
     20  N         -5.7270   -1.1970    9.3870 N.am   16  LYS16      -0.1963
     21  CA        -4.5300   -1.9140    9.8110 C.3    16  LYS16       0.1728
     22  C         -3.9310   -2.6840    8.6050 C.2    16  LYS16       0.2617
     23  O         -2.7260   -2.6400    8.3770 O.2    16  LYS16      -0.2715
     24  CB        -4.8460   -2.9330   10.9280 C.3    16  LYS16       0.0311
     25  CG        -5.4610   -2.2870   12.2160 C.3    16  LYS16       0.0038
     26  CD        -5.7970   -3.3680   13.2920 C.3    16  LYS16       0.0206
     27  CE        -6.8890   -4.2910   12.8900 C.3    16  LYS16       0.1093
     28  NZ        -8.1200   -3.5690   12.7080 N.3    16  LYS16      -0.1314
     29  N         -4.8300   -3.3600    7.8930 N.am   17  SER17      -0.1936
     30  CA        -4.4420   -4.2250    6.7860 C.3    17  SER17       0.2055
     31  C         -3.9430   -3.3840    5.5870 C.2    17  SER17       0.2642
     32  O         -2.8510   -3.6440    5.0750 O.2    17  SER17      -0.2714
     33  CB        -5.5890   -5.1470    6.3970 C.3    17  SER17       0.2130
     34  OG        -5.8810   -6.1230    7.4170 O.3    17  SER17      -0.2179
     35  N         -4.6930   -2.3070    5.3030 N.am   18  ALA18      -0.1977
     36  CA        -4.3430   -1.3810    4.2320 C.3    18  ALA18       0.1597
     37  C         -3.0130   -0.6950    4.5160 C.2    18  ALA18       0.2287
     38  O         -2.1820   -0.5890    3.5960 O.2    18  ALA18      -0.2864
     39  CB        -5.4190   -0.3680    4.0070 C.3    18  ALA18       0.0319
     40  N         -2.5260    0.0530   -2.6420 N.3    28  PHE28      -0.1227
     41  CA        -3.5810    0.2770   -1.6760 C.3    28  PHE28       0.1736
     42  C         -4.6520   -0.7580   -1.9290 C.2    28  PHE28       0.2595
     43  O         -5.0690   -0.9410   -3.0710 O.2    28  PHE28      -0.2718
     44  CB        -4.1090    1.6820   -1.9070 C.3    28  PHE28       0.0547
     45  CG        -5.3940    2.0030   -1.1530 C.ar   28  PHE28      -0.0202
     46  CD1       -5.3420    2.1750    0.2240 C.ar   28  PHE28      -0.0042
     47  CD2       -6.5930    2.1350   -1.8440 C.ar   28  PHE28      -0.0042
     48  CE1       -6.5120    2.4530    0.8810 C.ar   28  PHE28      -0.0003
     49  CE2       -7.7500    2.4620   -1.1510 C.ar   28  PHE28      -0.0003
     50  CZ        -7.7070    2.6030    0.2190 C.ar   28  PHE28      -0.0000
     51  N         -5.1360   -1.4840   -0.9370 N.am   29  ILE29      -0.1966
     52  CA        -6.2140   -2.4470   -1.1180 C.3    29  ILE29       0.1727
     53  C         -7.5870   -1.8370   -0.8200 C.2    29  ILE29       0.2616
     54  O         -7.7240   -1.0090    0.0720 O.2    29  ILE29      -0.2715
     55  CB        -5.9380   -3.6950   -0.2260 C.3    29  ILE29       0.0290
     56  CG1       -5.9220   -3.4000    1.2920 C.3    29  ILE29       0.0022
     57  CG2       -4.5740   -4.2760   -0.5940 C.3    29  ILE29       0.0023
     58  CD1       -5.5960   -4.6170    2.1920 C.3    29  ILE29       0.0001
     59  N         -8.6070   -2.3360   -1.5160 N.am   30  GLU30      -0.1963
     60  CA       -10.0320   -2.0330   -1.3500 C.3    30  GLU30       0.1733
     61  C        -10.8900   -2.7410   -0.3070 C.2    30  GLU30       0.2616
     62  O        -11.8480   -2.1010    0.0900 O.2    30  GLU30      -0.2715
     63  CB       -10.7360   -2.2860   -2.6630 C.3    30  GLU30       0.0429
     64  CG       -10.1280   -1.5250   -3.8520 C.3    30  GLU30       0.1163
     65  CD        -9.9630   -0.0120   -3.6920 C.2    30  GLU30       0.3649
     66  OE1      -10.8990    0.6810   -3.2690 O.co2  30  GLU30      -0.2457
     67  OE2       -8.8770    0.4660   -4.0200 O.co2  30  GLU30      -0.2457
     68  N        -10.7430   -4.0190    0.1150 N.am   31  LYS31      -0.1963
     69  CA       -11.2930   -4.5730    1.3720 C.3    31  LYS31       0.1728
     70  C        -10.6680   -5.9380    1.6800 C.2    31  LYS31       0.2616
     71  O         -9.8480   -6.3580    0.8440 O.2    31  LYS31      -0.2715
     72  CB       -12.8030   -4.6630    1.4810 C.3    31  LYS31       0.0311
     73  CG       -13.3520   -4.7800    2.9460 C.3    31  LYS31       0.0038
     74  CD       -12.5320   -4.2010    4.1250 C.3    31  LYS31       0.0206
     75  CE       -13.0120   -4.9480    5.3770 C.3    31  LYS31       0.1093
     76  NZ       -12.0800   -4.8760    6.4990 N.3    31  LYS31      -0.1314
     77  N        -10.9050   -6.6470    2.8320 N.am   32  TYR32      -0.1974
     78  CA       -10.2050   -7.8820    3.2020 C.3    32  TYR32       0.1639
     79  C        -10.8000   -8.3710    4.5140 C.2    32  TYR32       0.2290
     80  O        -10.8520   -7.6040    5.4750 O.2    32  TYR32      -0.2864
     81  CB        -8.6760   -7.6390    3.4960 C.3    32  TYR32       0.0560
     82  CG        -7.8740   -8.9260    3.8340 C.ar   32  TYR32      -0.0198
     83  CD1       -7.8560   -9.9860    2.9170 C.ar   32  TYR32      -0.0009
     84  CD2       -7.0840   -9.0040    4.9970 C.ar   32  TYR32      -0.0009
     85  CE1       -6.9680  -11.0420    3.0750 C.ar   32  TYR32       0.0417
     86  CE2       -6.2210  -10.0770    5.1730 C.ar   32  TYR32       0.0417
     87  CZ        -6.1260  -11.0690    4.1810 C.ar   32  TYR32       0.1957
     88  OH        -5.1640  -12.0840    4.2660 O.3    32  TYR32      -0.2866
     89  N        -11.8780   -9.1080    8.0510 N.3    34  PRO34      -0.2116
     90  CA       -11.4920   -8.7170    9.4030 C.3    34  PRO34       0.1372
     91  C        -11.1010   -9.8510   10.3750 C.2    34  PRO34       0.2244
     92  O        -10.5410   -9.5740   11.4490 O.2    34  PRO34      -0.2868
     93  CB       -12.7560   -7.9510    9.8740 C.3    34  PRO34       0.0268
     94  CG       -13.2970   -7.2970    8.6310 C.3    34  PRO34       0.0207
     95  CD       -13.1830   -8.4950    7.7020 C.3    34  PRO34       0.0892
     96  N         -3.4550   -7.9730   12.7030 N.3    58  THR58      -0.1218
     97  CA        -4.3370   -8.7160   13.6130 C.3    58  THR58       0.1862
     98  C         -5.7880   -8.6830   13.1350 C.2    58  THR58       0.2287
     99  O         -6.2620   -7.7340   12.5070 O.2    58  THR58      -0.2866
    100  CB        -4.2530   -8.2110   15.1320 C.3    58  THR58       0.1770
    101  OG1       -4.6150   -6.8200   15.1390 O.3    58  THR58      -0.2211
    102  CG2       -2.8390   -8.2110   15.7250 C.3    58  THR58       0.0375
    103  N        -11.2460   -6.7700   15.3850 N.3    61  THR61      -0.1218
    104  CA       -12.6480   -6.4480   15.6110 C.3    61  THR61       0.1862
    105  C        -13.1560   -7.1030   16.9260 C.2    61  THR61       0.2287
    106  O        -13.3390   -8.3390   16.8990 O.2    61  THR61      -0.2866
    107  CB       -13.5410   -6.9060   14.3310 C.3    61  THR61       0.1770
    108  OG1      -13.4450   -8.3140   14.0460 O.3    61  THR61      -0.2211
    109  CG2      -13.2000   -6.2440   12.9720 C.3    61  THR61       0.0375
    110  N         -5.5730    7.4260   10.9970 N.3   116  ASN116     -0.1225
    111  CA        -5.4960    7.0280    9.5920 C.3   116  ASN116      0.1785
    112  C         -6.6790    7.5450    8.8390 C.2   116  ASN116      0.2597
    113  O         -7.7000    7.9620    9.4170 O.2   116  ASN116     -0.2718
    114  CB        -5.4170    5.4900    9.4680 C.3   116  ASN116      0.1169
    115  CG        -5.1800    5.0190    8.0400 C.2   116  ASN116      0.2627
    116  OD1       -4.3390    5.5720    7.3500 O.2   116  ASN116     -0.2716
    117  ND2       -5.8980    4.0530    7.5110 N.am  116  ASN116     -0.0877
    118  N         -6.6240    7.5170    7.5070 N.am  117  LYS117     -0.1980
    119  CA        -7.6870    7.9500    6.6050 C.3   117  LYS117      0.1596
    120  C         -7.6850    9.4740    6.4330 C.2   117  LYS117      0.2287
    121  O         -8.7370   10.0630    6.1380 O.2   117  LYS117     -0.2864
    122  CB        -9.1350    7.4290    6.8910 C.3   117  LYS117      0.0298
    123  CG        -9.1840    5.9260    7.0080 C.3   117  LYS117      0.0038
    124  CD       -10.5590    5.3340    6.9070 C.3   117  LYS117      0.0206
    125  CE       -10.4740    3.8300    7.1020 C.3   117  LYS117      0.1093
    126  NZ       -11.8080    3.2150    6.9380 N.3   117  LYS117     -0.1314
    127  N         -6.8790   11.1280    3.9060 N.3   119  ASP119     -0.1225
    128  CA        -7.3330   11.5140    2.5830 C.3   119  ASP119      0.1805
    129  C         -8.8440   11.7610    2.5600 C.2   119  ASP119      0.2597
    130  O         -9.4000   12.3220    1.6170 O.2   119  ASP119     -0.2718
    131  CB        -7.0060   10.4260    1.5620 C.3   119  ASP119      0.1424
    132  CG        -7.5860    9.1000    1.9490 C.2   119  ASP119      0.3668
    133  OD1       -7.0710    8.5150    2.8860 O.co2 119  ASP119     -0.2456
    134  OD2       -8.5300    8.6620    1.3290 O.co2 119  ASP119     -0.2456
    135  N         -9.5800   11.2900    3.5660 N.am  120  LEU120     -0.1979
    136  CA       -11.0320   11.5640    3.6640 C.3   120  LEU120      0.1596
    137  C        -11.3010   12.7500    4.5820 C.2   120  LEU120      0.2287
    138  O        -12.2420   12.7770    5.3740 O.2   120  LEU120     -0.2864
    139  CB       -11.7400   10.3110    4.1590 C.3   120  LEU120      0.0297
    140  CG       -11.5180    9.0490    3.3810 C.3   120  LEU120      0.0022
    141  CD1      -12.2770    7.9010    4.0340 C.3   120  LEU120      0.0001
    142  CD2      -12.0640    9.2160    1.9740 C.3   120  LEU120      0.0001
    143  N         -2.5150    8.3870    5.4580 N.3   146  SER146     -0.1202
    144  CA        -3.4640    7.7680    4.5650 C.3   146  SER146      0.2020
    145  C         -2.7620    6.5030    4.0860 C.2   146  SER146      0.2619
    146  O         -1.5650    6.5450    3.7260 O.2   146  SER146     -0.2717
    147  CB        -3.7130    8.6780    3.3800 C.3   146  SER146      0.2103
    148  OG        -4.4400    7.9490    2.4220 O.3   146  SER146     -0.2182
    149  N         -3.4800    5.3740    4.0480 N.am  147  ALA147     -0.1965
    150  CA        -2.8910    4.1610    3.4990 C.3   147  ALA147      0.1728
    151  C         -2.6760    4.2180    1.9670 C.2   147  ALA147      0.2616
    152  O         -2.1260    3.2690    1.3990 O.2   147  ALA147     -0.2715
    153  CB        -3.7340    2.9240    3.8240 C.3   147  ALA147      0.0334
    154  N         -3.1670    5.2930    1.3260 N.am  148  LYS148     -0.1977
    155  CA        -2.9150    5.5390   -0.0970 C.3   148  LYS148      0.1596
    156  C         -1.4900    6.0320   -0.2770 C.2   148  LYS148      0.2287
    157  O         -1.0010    5.9500   -1.4090 O.2   148  LYS148     -0.2864
    158  CB        -3.8870    6.5980   -0.6760 C.3   148  LYS148      0.0298
    159  CG        -5.3110    6.1090   -0.5720 C.3   148  LYS148      0.0038
    160  CD        -6.1950    6.9280   -1.4690 C.3   148  LYS148      0.0206
    161  CE        -7.5980    6.3590   -1.3970 C.3   148  LYS148      0.1093
    162  NZ        -8.5250    7.0410   -2.2900 N.3   148  LYS148     -0.1314
@<TRIPOS>BOND
     1    67    65   ar
     2    64    65    1
     3    64    63    1
     4    65    66   ar
     5    43    42    2
     6    63    60    1
     7    40    41    1
     8   162   161    1
     9    42    41    1
    10    42    51   am
    11    44    41    1
    12    44    45    1
    13    47    45   ar
    14    47    49   ar
    15    59    60    1
    16    59    53   am
    17   160   161    1
    18   160   159    1
    19   157   156    2
    20    60    61    1
    21    45    46   ar
    22    49    50   ar
    23    52    51    1
    24    52    53    1
    25    52    55    1
    26    53    54    2
    27   158   159    1
    28   158   155    1
    29    57    55    1
    30    61    62    2
    31    61    68   am
    32   156   155    1
    33    55    56    1
    34   155   154    1
    35    68    69    1
    36    50    48   ar
    37    46    48   ar
    38    71    70    2
    39    56    58    1
    40   154   151   am
    41   134   132   ar
    42    69    72    1
    43    69    70    1
    44   152   151    2
    45    72    73    1
    46   131   132    1
    47   131   128    1
    48   130   129    2
    49    70    77   am
    50   132   133   ar
    51   151   150    1
    52   142   140    1
    53   148   147    1
    54   129   128    1
    55   129   135   am
    56   128   127    1
    57    77    78    1
    58    83    85   ar
    59    83    82   ar
    60    73    74    1
    61    85    87   ar
    62    78    81    1
    63    78    79    1
    64   147   144    1
    65   140   141    1
    66   140   139    1
    67    81    82    1
    68   150   153    1
    69   150   149    1
    70   135   136    1
    71    38    37    2
    72   136   139    1
    73   136   137    1
    74   146   145    2
    75    82    84   ar
    76    39    36    1
    77   149   145   am
    78   145   144    1
    79    74    75    1
    80    87    88    1
    81    87    86   ar
    82    36    37    1
    83    36    35    1
    84    79    80    2
    85   144   143    1
    86   137   138    2
    87    84    86   ar
    88    32    31    2
    89    35    31   am
    90    75    76    1
    91    31    30    1
    92   121   120    2
    93    33    30    1
    94    33    34    1
    95   120   119    1
    96   119   122    1
    97   119   118    1
    98    30    29    1
    99   122   123    1
   100   124   123    1
   101   124   125    1
   102   126   125    1
   103   116   115    2
   104   118   112   am
   105   117   115   am
   106    95    89    1
   107    95    94    1
   108    19    18    2
   109    29    22   am
   110    17    18    1
   111    17    16    1
   112   115   114    1
   113    89    90    1
   114    23    22    2
   115    18    20   am
   116    22    21    1
   117    94    93    1
   118     8     7    2
   119   112   113    2
   120   112   111    1
   121    16    11   am
   122    12    11    2
   123    20    21    1
   124    90    93    1
   125    90    91    1
   126   114   111    1
   127     6     7    1
   128     6     5    1
   129    11    10    1
   130   111   110    1
   131     7     9   am
   132    21    24    1
   133    91    92    2
   134     9    10    1
   135    10    13    1
   136     5     3   am
   137    24    25    1
   138     3     4    2
   139     3     2    1
   140    13    15    1
   141    13    14    1
   142    25    26    1
   143    99    98    2
   144     2     1    1
   145    96    97    1
   146    28    27    1
   147    27    26    1
   148   109   107    1
   149    98    97    1
   150    97   100    1
   151   108   107    1
   152   107   104    1
   153   100   101    1
   154   100   102    1
   155   103   104    1
   156   104   105    1
   157   106   105    2
