@<TRIPOS>MOLECULE
tmp/1kapA00.pdb
 189 185 0 0 0
SMALL
GASTEIGER

@<TRIPOS>ATOM
      1  N         -8.5530   24.4090  -33.4620 N.3    76  VAL76      -0.1245
      2  CA        -9.9240   24.6160  -33.0370 C.3    76  VAL76       0.1561
      3  C        -10.7170   24.9580  -34.2900 C.2    76  VAL76       0.2260
      4  O        -10.2940   25.7940  -35.0900 O.2    76  VAL76      -0.2867
      5  CB       -10.0350   25.7370  -31.9630 C.3    76  VAL76       0.0252
      6  CG1       -9.1880   25.3800  -30.7420 C.3    76  VAL76       0.0019
      7  CG2       -9.5940   27.0750  -32.5250 C.3    76  VAL76       0.0019
      8  N        -13.7060   26.4970  -34.7510 N.3    78  ASP78      -0.1225
      9  CA       -14.2990   27.8370  -34.7840 C.3    78  ASP78       0.1805
     10  C        -13.4190   29.0810  -35.0260 C.2    78  ASP78       0.2597
     11  O        -13.9050   30.0810  -35.5790 O.2    78  ASP78      -0.2718
     12  CB       -15.1970   28.0490  -33.5460 C.3    78  ASP78       0.1424
     13  CG       -14.4510   27.8640  -32.2160 C.2    78  ASP78       0.3668
     14  OD1      -13.8210   26.7960  -32.0100 O.co2  78  ASP78      -0.2456
     15  OD2      -14.5210   28.7860  -31.3630 O.co2  78  ASP78      -0.2456
     16  N        -12.1480   29.0430  -34.6250 N.am   79  ILE79      -0.1980
     17  CA       -11.2850   30.2080  -34.8070 C.3    79  ILE79       0.1595
     18  C        -10.4920   30.1770  -36.1040 C.2    79  ILE79       0.2287
     19  O         -9.7680   29.2190  -36.3850 O.2    79  ILE79      -0.2864
     20  CB       -10.2990   30.4010  -33.6250 C.3    79  ILE79       0.0276
     21  CG1      -11.0640   30.4960  -32.3060 C.3    79  ILE79       0.0022
     22  CG2       -9.5080   31.6820  -33.8080 C.3    79  ILE79       0.0022
     23  CD1      -10.1690   30.6670  -31.0910 C.3    79  ILE79       0.0001
     24  N        -12.9730   36.9330  -30.6280 N.3   131  VAL131     -0.1231
     25  CA       -13.4220   35.5630  -30.8900 C.3   131  VAL131      0.1692
     26  C        -14.7010   35.2760  -30.0650 C.2   131  VAL131      0.2593
     27  O        -15.0360   34.1240  -29.7610 O.2   131  VAL131     -0.2718
     28  CB       -12.3030   34.5340  -30.5410 C.3   131  VAL131      0.0266
     29  CG1      -12.7320   33.1200  -30.8920 C.3   131  VAL131      0.0020
     30  CG2      -11.0400   34.8680  -31.3080 C.3   131  VAL131      0.0020
     31  N        -15.4170   36.3390  -29.7070 N.am  132  GLY132     -0.1942
     32  CA       -16.6360   36.1740  -28.9320 C.3   132  GLY132      0.2014
     33  C        -16.4590   36.2270  -27.4240 C.2   132  GLY132      0.2639
     34  O        -17.4000   35.9430  -26.6810 O.2   132  GLY132     -0.2714
     35  N        -15.2700   36.6190  -26.9710 N.am  133  GLY133     -0.1939
     36  CA       -15.0020   36.7110  -25.5460 C.3   133  GLY133      0.2014
     37  C        -13.7930   37.5800  -25.2360 C.2   133  GLY133      0.2639
     38  O        -12.9630   37.8550  -26.1090 O.2   133  GLY133     -0.2714
     39  N        -13.6920   37.9900  -23.9790 N.am  134  ALA134     -0.1963
     40  CA       -12.6000   38.8270  -23.4990 C.3   134  ALA134      0.1728
     41  C        -11.2510   38.1000  -23.4380 C.2   134  ALA134      0.2616
     42  O        -10.1970   38.7380  -23.4780 O.2   134  ALA134     -0.2715
     43  CB       -12.9500   39.3520  -22.1250 C.3   134  ALA134      0.0334
     44  N        -11.2910   36.7800  -23.2930 N.am  135  ALA135     -0.1963
     45  CA       -10.0900   35.9670  -23.1980 C.3   135  ALA135      0.1728
     46  C        -10.4990   34.5070  -23.2750 C.2   135  ALA135      0.2616
     47  O        -11.6850   34.1970  -23.2350 O.2   135  ALA135     -0.2715
     48  CB        -9.3690   36.2430  -21.8670 C.3   135  ALA135      0.0334
     49  N         -9.5280   33.6190  -23.4330 N.am  136  PHE136     -0.1960
     50  CA        -9.8190   32.1960  -23.4800 C.3   136  PHE136      0.1771
     51  C         -8.6040   31.3850  -23.0440 C.2   136  PHE136      0.2619
     52  O         -7.4830   31.9050  -22.9680 O.2   136  PHE136     -0.2715
     53  CB       -10.3390   31.7580  -24.8650 C.3   136  PHE136      0.0574
     54  CG        -9.3340   31.9100  -25.9860 C.ar  136  PHE136     -0.0200
     55  CD1       -8.4090   30.9020  -26.2520 C.ar  136  PHE136     -0.0042
     56  CD2       -9.3330   33.0570  -26.7880 C.ar  136  PHE136     -0.0042
     57  CE1       -7.4930   31.0320  -27.3040 C.ar  136  PHE136     -0.0003
     58  CE2       -8.4230   33.1970  -27.8400 C.ar  136  PHE136     -0.0003
     59  CZ        -7.5040   32.1840  -28.0970 C.ar  136  PHE136     -0.0000
     60  N         -8.8410   30.1290  -22.7020 N.am  137  ALA137     -0.1963
     61  CA        -7.7850   29.2410  -22.2550 C.3   137  ALA137      0.1728
     62  C         -8.1710   27.8170  -22.5910 C.2   137  ALA137      0.2616
     63  O         -9.2830   27.5580  -23.0630 O.2   137  ALA137     -0.2715
     64  CB        -7.5790   29.3830  -20.7450 C.3   137  ALA137      0.0334
     65  N         -7.2410   26.9000  -22.3640 N.am  138  PHE138     -0.1960
     66  CA        -7.4650   25.4860  -22.6140 C.3   138  PHE138      0.1771
     67  C         -7.2990   24.7040  -21.3220 C.2   138  PHE138      0.2619
     68  O         -6.3950   24.9950  -20.5310 O.2   138  PHE138     -0.2715
     69  CB        -6.4500   24.9550  -23.6420 C.3   138  PHE138      0.0574
     70  CG        -6.5960   25.5590  -25.0100 C.ar  138  PHE138     -0.0200
     71  CD1       -7.5650   25.0840  -25.8940 C.ar  138  PHE138     -0.0042
     72  CD2       -5.7860   26.6220  -25.4090 C.ar  138  PHE138     -0.0042
     73  CE1       -7.7310   25.6610  -27.1570 C.ar  138  PHE138     -0.0003
     74  CE2       -5.9410   27.2090  -26.6710 C.ar  138  PHE138     -0.0003
     75  CZ        -6.9190   26.7250  -27.5450 C.ar  138  PHE138     -0.0000
     76  N         -8.1900   23.7410  -21.0980 N.am  139  LEU139     -0.1977
     77  CA        -8.1210   22.8530  -19.9310 C.3   139  LEU139      0.1596
     78  C         -6.9170   21.9300  -20.1910 C.2   139  LEU139      0.2287
     79  O         -6.5060   21.7580  -21.3430 O.2   139  LEU139     -0.2864
     80  CB        -9.4150   22.0300  -19.7900 C.3   139  LEU139      0.0297
     81  CG       -10.7170   22.5660  -19.1530 C.3   139  LEU139      0.0022
     82  CD1      -10.9160   22.0030  -17.7700 C.3   139  LEU139      0.0001
     83  CD2      -10.7710   24.0730  -19.1350 C.3   139  LEU139      0.0001
     84  N         -5.9910   18.7490  -23.2670 N.3   142  VAL142     -0.1245
     85  CA        -5.8440   19.0310  -24.6900 C.3   142  VAL142      0.1561
     86  C         -4.4340   18.6070  -25.1130 C.2   142  VAL142      0.2260
     87  O         -3.6210   18.2200  -24.2700 O.2   142  VAL142     -0.2867
     88  CB        -6.0500   20.5430  -25.0010 C.3   142  VAL142      0.0252
     89  CG1       -7.4900   20.9490  -24.7510 C.3   142  VAL142      0.0019
     90  CG2       -5.0770   21.3910  -24.1940 C.3   142  VAL142      0.0019
     91  N         -1.4660   22.9370  -27.1940 N.3   146  LEU146     -0.1245
     92  CA        -2.4130   23.9320  -26.6960 C.3   146  LEU146      0.1561
     93  C         -2.4080   24.0430  -25.1740 C.2   146  LEU146      0.2260
     94  O         -2.8110   25.0520  -24.6160 O.2   146  LEU146     -0.2867
     95  CB        -3.8260   23.5650  -27.1600 C.3   146  LEU146      0.0270
     96  CG        -4.0790   23.4040  -28.6600 C.3   146  LEU146      0.0019
     97  CD1       -5.5010   22.9510  -28.8820 C.3   146  LEU146      0.0001
     98  CD2       -3.8280   24.7160  -29.3790 C.3   146  LEU146      0.0001
     99  N         -9.4640   33.8870  -13.5460 N.3   176  HIS176     -0.1226
    100  CA       -10.4280   33.0070  -14.1920 C.3   176  HIS176      0.1752
    101  C         -9.7460   32.1280  -15.2710 C.2   176  HIS176      0.2595
    102  O         -9.9050   30.9010  -15.2640 O.2   176  HIS176     -0.2718
    103  CB       -11.5320   33.8850  -14.7840 C.3   176  HIS176      0.0759
    104  CG       -12.5680   33.1420  -15.5620 C.ar  176  HIS176      0.0818
    105  ND1      -13.8570   32.9710  -15.1100 N.ar  176  HIS176     -0.2268
    106  CD2      -12.5290   32.6030  -16.8030 C.ar  176  HIS176      0.1154
    107  CE1      -14.5730   32.3630  -16.0390 C.ar  176  HIS176      0.1986
    108  NE2      -13.7900   32.1340  -17.0790 N.ar  176  HIS176     -0.2212
    109  N         -8.9750   32.7390  -16.1750 N.am  177  GLU177     -0.1979
    110  CA        -8.3120   31.9670  -17.2330 C.3   177  GLU177      0.1602
    111  C         -7.2920   30.9930  -16.6750 C.2   177  GLU177      0.2287
    112  O         -7.2000   29.8590  -17.1430 O.2   177  GLU177     -0.2864
    113  CB        -7.6750   32.8740  -18.2840 C.3   177  GLU177      0.0415
    114  CG        -8.6620   33.7720  -19.0240 C.3   177  GLU177      0.1163
    115  CD        -9.8440   33.0320  -19.6680 C.2   177  GLU177      0.3649
    116  OE1       -9.7370   31.8390  -20.0150 O.co2 177  GLU177     -0.2457
    117  OE2      -10.8990   33.6700  -19.8390 O.co2 177  GLU177     -0.2457
    118  N         -8.9330   27.9060  -15.5710 N.3   180  HIS180     -0.1241
    119  CA        -9.1830   26.9670  -16.6780 C.3   180  HIS180      0.1621
    120  C         -7.9320   26.1440  -17.0000 C.2   180  HIS180      0.2264
    121  O         -8.0080   24.9280  -17.1550 O.2   180  HIS180     -0.2867
    122  CB        -9.5760   27.7040  -17.9530 C.3   180  HIS180      0.0745
    123  CG       -10.9920   28.1670  -17.9870 C.ar  180  HIS180      0.0817
    124  ND1      -12.0460   27.3960  -17.5480 N.ar  180  HIS180     -0.2268
    125  CD2      -11.5330   29.3070  -18.4730 C.ar  180  HIS180      0.1154
    126  CE1      -13.1770   28.0410  -17.7680 C.ar  180  HIS180      0.1986
    127  NE2      -12.8940   29.2040  -18.3330 N.ar  180  HIS180     -0.2212
    128  N        -13.6720   24.1730  -14.7920 N.3   185  SER185     -0.1202
    129  CA       -14.6470   24.5500  -15.8100 C.3   185  SER185      0.2020
    130  C        -15.5520   25.6410  -15.2230 C.2   185  SER185      0.2618
    131  O        -15.4110   26.0270  -14.0560 O.2   185  SER185     -0.2717
    132  CB       -15.5320   23.3400  -16.1600 C.3   185  SER185      0.2103
    133  OG       -14.7840   22.3270  -16.7950 O.3   185  SER185     -0.2182
    134  N        -16.4420   26.1900  -16.0460 N.am  186  HIS186     -0.1975
    135  CA       -17.4260   27.1340  -15.5320 C.3   186  HIS186      0.1656
    136  C        -18.3180   26.2010  -14.7050 C.2   186  HIS186      0.2291
    137  O        -18.3490   24.9850  -14.9500 O.2   186  HIS186     -0.2864
    138  CB       -18.2700   27.7350  -16.6530 C.3   186  HIS186      0.0771
    139  CG       -17.4860   28.5600  -17.6180 C.ar  186  HIS186      0.0820
    140  ND1      -17.7110   28.5230  -18.9770 N.ar  186  HIS186     -0.2267
    141  CD2      -16.4630   29.4260  -17.4260 C.ar  186  HIS186      0.1154
    142  CE1      -16.8570   29.3280  -19.5830 C.ar  186  HIS186      0.1986
    143  NE2      -16.0910   29.8900  -18.6650 N.ar  186  HIS186     -0.2212
    144  N        -21.9820   26.3050  -20.1610 N.3   190  TYR190     -0.1227
    145  CA       -22.2040   27.4930  -20.9720 C.3   190  TYR190      0.1736
    146  C        -20.8120   28.0400  -21.2890 C.2   190  TYR190      0.2595
    147  O        -19.8240   27.7420  -20.5860 O.2   190  TYR190     -0.2718
    148  CB       -23.0870   28.5280  -20.2340 C.3   190  TYR190      0.0548
    149  CG       -22.6220   28.8990  -18.8320 C.ar  190  TYR190     -0.0200
    150  CD1      -21.5060   29.7110  -18.6450 C.ar  190  TYR190     -0.0009
    151  CD2      -23.2900   28.4220  -17.6930 C.ar  190  TYR190     -0.0009
    152  CE1      -21.0560   30.0400  -17.3770 C.ar  190  TYR190      0.0417
    153  CE2      -22.8460   28.7470  -16.4080 C.ar  190  TYR190      0.0417
    154  CZ       -21.7280   29.5560  -16.2610 C.ar  190  TYR190      0.1957
    155  OH       -21.2580   29.9270  -15.0230 O.3   190  TYR190     -0.2866
    156  N        -20.7150   28.7950  -22.3660 N.am  191  ASN191     -0.1960
    157  CA       -19.4370   29.3490  -22.7520 C.3   191  ASN191      0.1819
    158  C        -19.7270   30.4900  -23.6980 C.2   191  ASN191      0.2621
    159  O        -20.7280   30.4540  -24.4210 O.2   191  ASN191     -0.2715
    160  CB       -18.6030   28.2710  -23.4450 C.3   191  ASN191      0.1195
    161  CG       -17.1740   28.7000  -23.6690 C.2   191  ASN191      0.2630
    162  OD1      -16.5930   29.4050  -22.8460 O.2   191  ASN191     -0.2716
    163  ND2      -16.5910   28.2700  -24.7810 N.am  191  ASN191     -0.0877
    164  N        -18.9010   31.5290  -23.6570 N.am  192  ALA192     -0.1977
    165  CA       -19.1050   32.6690  -24.5470 C.3   192  ALA192      0.1597
    166  C        -19.0010   32.1470  -25.9820 C.2   192  ALA192      0.2287
    167  O        -18.1910   31.2550  -26.2680 O.2   192  ALA192     -0.2864
    168  CB       -18.0540   33.7490  -24.2900 C.3   192  ALA192      0.0319
    169  N        -21.1090   30.2020  -27.5610 N.3   194  GLU194     -0.1245
    170  CA       -21.9990   29.0570  -27.7560 C.3   194  GLU194      0.1567
    171  C        -23.3930   29.4890  -27.3360 C.2   194  GLU194      0.2260
    172  O        -23.7190   29.5180  -26.1460 O.2   194  GLU194     -0.2867
    173  CB       -21.5420   27.8660  -26.9190 C.3   194  GLU194      0.0388
    174  CG       -20.2400   27.2680  -27.3920 C.3   194  GLU194      0.1160
    175  CD       -19.5960   26.3530  -26.3660 C.2   194  GLU194      0.3649
    176  OE1      -20.3220   25.7990  -25.5040 O.co2 194  GLU194     -0.2457
    177  OE2      -18.3530   26.1940  -26.4180 O.co2 194  GLU194     -0.2457
    178  N        -20.0050   33.2880  -14.6720 N.3   216  TYR216     -0.1241
    179  CA       -20.2310   34.4320  -15.5430 C.3   216  TYR216      0.1605
    180  C        -21.2820   35.3700  -14.9240 C.2   216  TYR216      0.2264
    181  O        -21.4250   36.5120  -15.3560 O.2   216  TYR216     -0.2867
    182  CB       -20.8690   33.9570  -16.8610 C.3   216  TYR216      0.0534
    183  CG       -19.9540   33.4850  -17.9580 C.ar  216  TYR216     -0.0201
    184  CD1      -18.5790   33.3050  -17.7510 C.ar  216  TYR216     -0.0009
    185  CD2      -20.4760   33.2260  -19.2300 C.ar  216  TYR216     -0.0009
    186  CE1      -17.7440   32.8760  -18.7950 C.ar  216  TYR216      0.0417
    187  CE2      -19.6600   32.8060  -20.2740 C.ar  216  TYR216      0.0417
    188  CZ       -18.3030   32.6310  -20.0570 C.ar  216  TYR216      0.1957
    189  OH       -17.5220   32.2150  -21.1080 O.3   216  TYR216     -0.2866
@<TRIPOS>BOND
     1    19    18    2
     2    18    17    1
     3    11    10    2
     4     4     3    2
     5    10     9    1
     6    10    16   am
     7    17    16    1
     8    17    20    1
     9     9     8    1
    10     9    12    1
    11     3     2    1
    12    22    20    1
    13    20    21    1
    14    12    13    1
    15     1     2    1
    16     2     5    1
    17     7     5    1
    18    21    23    1
    19    13    14   ar
    20    13    15   ar
    21     5     6    1
    22    30    28    1
    23    29    28    1
    24    25    24    1
    25    25    28    1
    26    25    26    1
    27    26    27    2
    28    26    31   am
    29    31    32    1
    30    98    96    1
    31    32    33    1
    32    97    96    1
    33    96    95    1
    34    59    58   ar
    35    59    57   ar
    36    58    56   ar
    37   170   169    1
    38   170   171    1
    39   170   173    1
    40    75    73   ar
    41    75    74   ar
    42    33    35   am
    43    33    34    2
    44   174   173    1
    45   174   175    1
    46   171   172    2
    47    57    55   ar
    48    91    92    1
    49    95    92    1
    50    73    71   ar
    51    35    36    1
    52    56    54   ar
    53    92    93    1
    54    74    72   ar
    55   177   175   ar
    56   175   176   ar
    57   167   166    2
    58    55    54   ar
    59    38    37    2
    60    54    53    1
    61   166   165    1
    62    71    70   ar
    63    36    37    1
    64    72    70   ar
    65    37    39   am
    66    93    94    2
    67    86    85    1
    68    86    87    2
    69    70    69    1
    70    88    89    1
    71    88    85    1
    72    88    90    1
    73    53    50    1
    74   163   161   am
    75    85    84    1
    76   165   168    1
    77   165   164    1
    78   159   158    2
    79    39    40    1
    80   158   164   am
    81   158   157    1
    82   161   160    1
    83   161   162    2
    84    69    66    1
    85    40    41    1
    86    40    43    1
    87    50    49    1
    88    50    51    1
    89    42    41    2
    90   160   157    1
    91    41    44   am
    92    49    46   am
    93    44    45    1
    94    46    47    2
    95    46    45    1
    96    45    48    1
    97    63    62    2
    98    51    52    2
    99    51    60   am
   100   157   156    1
   101    60    61    1
   102    66    65    1
   103    66    67    1
   104    62    65   am
   105    62    61    1
   106   156   146   am
   107    61    64    1
   108    79    78    2
   109    67    76   am
   110    67    68    2
   111   146   145    1
   112   146   147    2
   113   189   188    1
   114    76    77    1
   115   145   148    1
   116   145   144    1
   117   187   188   ar
   118   187   185   ar
   119   148   149    1
   120    78    77    1
   121   188   186   ar
   122   116   115   ar
   123    77    80    1
   124   117   115   ar
   125    80    81    1
   126   115   114    1
   127   142   140   ar
   128   142   143   ar
   129   185   183   ar
   130    81    83    1
   131    81    82    1
   132   114   113    1
   133   140   139   ar
   134   149   150   ar
   135   149   151   ar
   136   186   184   ar
   137   143   141   ar
   138   150   152   ar
   139   125   127   ar
   140   125   123   ar
   141   127   126   ar
   142   113   110    1
   143   123   122    1
   144   123   124   ar
   145   183   184   ar
   146   183   182    1
   147   122   119    1
   148   126   124   ar
   149   151   153   ar
   150   139   141   ar
   151   139   138    1
   152   152   154   ar
   153   110   111    1
   154   110   109    1
   155   121   120    2
   156   112   111    2
   157   108   106   ar
   158   108   107   ar
   159   120   119    1
   160   182   179    1
   161   106   104   ar
   162   133   132    1
   163   119   118    1
   164   138   135    1
   165   153   154   ar
   166   154   155    1
   167   109   101   am
   168   132   129    1
   169   134   135    1
   170   134   130   am
   171   107   105   ar
   172   129   130    1
   173   129   128    1
   174   104   105   ar
   175   104   103    1
   176   179   180    1
   177   179   178    1
   178   135   136    1
   179   181   180    2
   180   101   102    2
   181   101   100    1
   182   130   131    2
   183   137   136    2
   184   103   100    1
   185   100    99    1
