@<TRIPOS>MOLECULE
tmp/1karA00.pdb
 86 83 0 0 0
SMALL
GASTEIGER

@<TRIPOS>ATOM
      1  N         18.9490  105.9390   69.9470 N.3   133  LEU133     -0.1245
      2  CA        17.6380  106.3470   69.4630 C.3   133  LEU133      0.1561
      3  C         17.0050  105.1650   68.7350 C.2   133  LEU133      0.2260
      4  O         16.8720  105.1700   67.5060 O.2   133  LEU133     -0.2867
      5  CB        17.7750  107.5470   68.5200 C.3   133  LEU133      0.0270
      6  CG        17.8200  108.9350   69.1780 C.3   133  LEU133      0.0019
      7  CD1       18.9030  108.9820   70.2430 C.3   133  LEU133      0.0001
      8  CD2       18.0550  109.9990   68.1190 C.3   133  LEU133      0.0001
      9  N         14.1030  104.3630   68.3610 N.3   135  SER135     -0.1202
     10  CA        12.8810  104.6940   67.6390 C.3   135  SER135      0.2020
     11  C         13.1240  104.6940   66.1300 C.2   135  SER135      0.2619
     12  O         12.2340  104.3590   65.3510 O.2   135  SER135     -0.2717
     13  CB        12.3330  106.0580   68.0920 C.3   135  SER135      0.2103
     14  OG        13.2880  107.0970   67.9390 O.3   135  SER135     -0.2182
     15  N         14.3330  105.0600   65.7160 N.am  136  THR136     -0.1952
     16  CA        14.6710  105.0780   64.2970 C.3   136  THR136      0.1897
     17  C         14.5440  103.6630   63.6970 C.2   136  THR136      0.2313
     18  O         14.3380  103.5010   62.4910 O.2   136  THR136     -0.2863
     19  CB        16.1030  105.5930   64.0860 C.3   136  THR136      0.1794
     20  OG1       16.2640  106.8440   64.7680 O.3   136  THR136     -0.2208
     21  CG2       16.3760  105.7990   62.6150 C.3   136  THR136      0.0378
     22  N         19.9610  118.8610   61.7630 N.3   230  SER230     -0.1217
     23  CA        18.5060  118.8560   61.9160 C.3   230  SER230      0.1889
     24  C         17.9930  120.2750   62.0960 C.2   230  SER230      0.2288
     25  O         18.7200  121.1380   62.5760 O.2   230  SER230     -0.2866
     26  CB        18.0990  118.0210   63.1260 C.3   230  SER230      0.2089
     27  OG        18.5170  116.6840   62.9630 O.3   230  SER230     -0.2183
     28  N         19.0050  117.6540   70.3320 N.3   255  HIS255     -0.1241
     29  CA        19.4440  116.6020   69.4240 C.3   255  HIS255      0.1621
     30  C         20.9360  116.7190   69.1160 C.2   255  HIS255      0.2264
     31  O         21.6220  115.7100   68.9490 O.2   255  HIS255     -0.2867
     32  CB        18.6580  116.6430   68.1080 C.3   255  HIS255      0.0745
     33  CG        17.4560  115.7510   68.0930 C.ar  255  HIS255      0.0817
     34  ND1       17.5200  114.4150   68.4270 N.ar  255  HIS255     -0.2268
     35  CD2       16.1590  116.0020   67.7890 C.ar  255  HIS255      0.1154
     36  CE1       16.3150  113.8820   68.3320 C.ar  255  HIS255      0.1986
     37  NE2       15.4710  114.8230   67.9470 N.ar  255  HIS255     -0.2212
     38  N         13.1850  121.3850   57.9210 N.3   318  GLU318     -0.1231
     39  CA        12.9790  119.9600   58.1120 C.3   318  GLU318      0.1699
     40  C         11.6480  119.7450   58.8350 C.2   318  GLU318      0.2592
     41  O         10.8050  118.9670   58.3830 O.2   318  GLU318     -0.2718
     42  CB        14.1130  119.3810   58.9510 C.3   318  GLU318      0.0402
     43  CG        13.9930  117.8810   59.1540 C.3   318  GLU318      0.1161
     44  CD        14.9310  117.3590   60.2260 C.2   318  GLU318      0.3649
     45  OE1       15.6870  118.1640   60.8070 O.co2 318  GLU318     -0.2457
     46  OE2       14.8990  116.1420   60.4980 O.co2 318  GLU318     -0.2457
     47  N         11.4820  120.4100   59.9800 N.am  319  HIS319     -0.1976
     48  CA        10.2420  120.3370   60.7460 C.3   319  HIS319      0.1656
     49  C          9.6520  121.7400   60.7850 C.2   319  HIS319      0.2291
     50  O         10.3510  122.6910   61.1260 O.2   319  HIS319     -0.2864
     51  CB        10.4700  119.9220   62.2060 C.3   319  HIS319      0.0771
     52  CG        11.2400  118.6520   62.3850 C.ar  319  HIS319      0.0820
     53  ND1       12.6150  118.6240   62.4940 N.ar  319  HIS319     -0.2267
     54  CD2       10.8220  117.3740   62.5520 C.ar  319  HIS319      0.1154
     55  CE1       13.0110  117.3850   62.7280 C.ar  319  HIS319      0.1986
     56  NE2       11.9420  116.6060   62.7690 N.ar  319  HIS319     -0.2212
     57  N          8.0750  112.3570   66.2940 N.3   352  ASP352     -0.1225
     58  CA         9.2800  111.5440   66.4360 C.3   352  ASP352      0.1805
     59  C          8.9430  110.1230   66.9030 C.2   352  ASP352      0.2597
     60  O          9.6070  109.1650   66.5100 O.2   352  ASP352     -0.2718
     61  CB        10.2510  112.1420   67.4770 C.3   352  ASP352      0.1424
     62  CG        10.8970  113.4420   67.0240 C.2   352  ASP352      0.3668
     63  OD1       11.0550  113.6540   65.8020 O.co2 352  ASP352     -0.2456
     64  OD2       11.2720  114.2490   67.9010 O.co2 352  ASP352     -0.2456
     65  N          7.9040  109.9870   67.7260 N.am  353  TYR353     -0.1976
     66  CA         7.5720  108.6810   68.3000 C.3   353  TYR353      0.1639
     67  C          6.2800  107.9300   68.0020 C.2   353  TYR353      0.2290
     68  O          6.3200  106.7220   67.7770 O.2   353  TYR353     -0.2864
     69  CB         7.6790  108.7550   69.8250 C.3   353  TYR353      0.0560
     70  CG         9.0240  109.1660   70.3600 C.ar  353  TYR353     -0.0198
     71  CD1        9.2040  110.4130   70.9560 C.ar  353  TYR353     -0.0009
     72  CD2       10.1140  108.3030   70.2940 C.ar  353  TYR353     -0.0009
     73  CE1       10.4390  110.7930   71.4760 C.ar  353  TYR353      0.0417
     74  CE2       11.3570  108.6730   70.8100 C.ar  353  TYR353      0.0417
     75  CZ        11.5120  109.9160   71.3990 C.ar  353  TYR353      0.1957
     76  OH        12.7340  110.2920   71.9060 O.3   353  TYR353     -0.2866
     77  N         10.0190  110.0000   61.1140 N.3   359  HIS359     -0.1241
     78  CA        10.8960  111.0560   61.6060 C.3   359  HIS359      0.1621
     79  C         12.2310  111.1300   60.8620 C.2   359  HIS359      0.2264
     80  O         13.1240  111.8810   61.2500 O.2   359  HIS359     -0.2867
     81  CB        11.1140  110.9210   63.1230 C.3   359  HIS359      0.0745
     82  CG        12.0370  109.8110   63.5320 C.ar  359  HIS359      0.0817
     83  ND1       11.9390  109.1870   64.7590 N.ar  359  HIS359     -0.2268
     84  CD2       13.1150  109.2630   62.9200 C.ar  359  HIS359      0.1154
     85  CE1       12.9160  108.3060   64.8860 C.ar  359  HIS359      0.1986
     86  NE2       13.6450  108.3330   63.7850 N.ar  359  HIS359     -0.2212
@<TRIPOS>BOND
     1    38    39    1
     2    39    40    1
     3    39    42    1
     4    41    40    2
     5    40    47   am
     6    42    43    1
     7    43    44    1
     8    47    48    1
     9    44    46   ar
    10    44    45   ar
    11    48    49    1
    12    48    51    1
    13    49    50    2
    14    79    80    2
    15    79    78    1
    16    77    78    1
    17    78    81    1
    18    22    23    1
    19    23    24    1
    20    23    26    1
    21    24    25    2
    22    51    52    1
    23    52    53   ar
    24    52    54   ar
    25    18    17    2
    26    53    55   ar
    27    54    56   ar
    28    21    19    1
    29    55    56   ar
    30    84    82   ar
    31    84    86   ar
    32    27    26    1
    33    81    82    1
    34    82    83   ar
    35    17    16    1
    36    86    85   ar
    37    19    16    1
    38    19    20    1
    39    16    15    1
    40    83    85   ar
    41    12    11    2
    42    15    11   am
    43    63    62   ar
    44    11    10    1
    45    57    58    1
    46    58    59    1
    47    58    61    1
    48    60    59    2
    49    59    65   am
    50    62    61    1
    51    62    64   ar
    52     4     3    2
    53    10    13    1
    54    10     9    1
    55    65    66    1
    56    68    67    2
    57    35    37   ar
    58    35    33   ar
    59    14    13    1
    60    37    36   ar
    61    67    66    1
    62    33    32    1
    63    33    34   ar
    64    32    29    1
    65     8     6    1
    66    66    69    1
    67    36    34   ar
    68     5     6    1
    69     5     2    1
    70     3     2    1
    71    31    30    2
    72    30    29    1
    73     6     7    1
    74    29    28    1
    75     2     1    1
    76    69    70    1
    77    72    70   ar
    78    72    74   ar
    79    70    71   ar
    80    74    75   ar
    81    71    73   ar
    82    75    73   ar
    83    75    76    1
