@<TRIPOS>MOLECULE
tmp/1kavA00.pdb
 128 124 0 0 0
SMALL
GASTEIGER

@<TRIPOS>ATOM
      1  N         38.2020   14.0990   88.0440 N.3    45  TYR45      -0.1227
      2  CA        38.1310   13.0090   89.0040 C.3    45  TYR45       0.1736
      3  C         39.3560   12.1120   88.9160 C.2    45  TYR45       0.2595
      4  O         39.9020   11.8760   87.8360 O.2    45  TYR45      -0.2718
      5  CB        36.8640   12.1820   88.7820 C.3    45  TYR45       0.0548
      6  CG        35.5850   12.9770   88.9110 C.ar   45  TYR45      -0.0200
      7  CD1       34.8350   13.3110   87.7830 C.ar   45  TYR45      -0.0009
      8  CD2       35.1400   13.4260   90.1540 C.ar   45  TYR45      -0.0009
      9  CE1       33.6750   14.0730   87.8860 C.ar   45  TYR45       0.0417
     10  CE2       33.9780   14.1960   90.2690 C.ar   45  TYR45       0.0417
     11  CZ        33.2540   14.5170   89.1280 C.ar   45  TYR45       0.1957
     12  OH        32.1240   15.3050   89.2210 O.3    45  TYR45      -0.2866
     13  N         39.7710   11.6150   90.0730 N.am   46  ARG46      -0.1966
     14  CA        40.9320   10.7470   90.2050 C.3    46  ARG46       0.1729
     15  C         40.8500    9.4400   89.4100 C.2    46  ARG46       0.2616
     16  O         41.7510    9.1370   88.6300 O.2    46  ARG46      -0.2715
     17  CB        41.1610   10.4360   91.6900 C.3    46  ARG46       0.0348
     18  CG        42.3080    9.4850   91.9700 C.3    46  ARG46       0.0492
     19  CD        42.2740    9.0150   93.4190 C.3    46  ARG46       0.2205
     20  NE        40.9400    8.5600   93.8110 N.pl3  46  ARG46      -0.0865
     21  CZ        40.6610    7.9520   94.9600 C.cat  46  ARG46       0.5346
     22  NH1       41.6260    7.7150   95.8400 N.pl3  46  ARG46       0.1354
     23  NH2       39.4130    7.5920   95.2380 N.pl3  46  ARG46       0.1354
     24  N         39.7840    8.6650   89.5960 N.am   47  ASP47      -0.1957
     25  CA        39.6740    7.4010   88.8780 C.3    47  ASP47       0.1840
     26  C         38.8520    7.3740   87.5910 C.2    47  ASP47       0.2621
     27  O         38.2670    6.3490   87.2460 O.2    47  ASP47      -0.2715
     28  CB        39.1950    6.2880   89.8200 C.3    47  ASP47       0.1450
     29  CG        38.0580    6.7240   90.7120 C.2    47  ASP47       0.3671
     30  OD1       36.9780    7.0650   90.1780 O.co2  47  ASP47      -0.2456
     31  OD2       38.2500    6.7190   91.9490 O.co2  47  ASP47      -0.2456
     32  N         38.8140    8.4990   86.8860 N.am   48  VAL48      -0.1977
     33  CA        38.1200    8.5830   85.6070 C.3    48  VAL48       0.1596
     34  C         39.1380    9.1680   84.6340 C.2    48  VAL48       0.2287
     35  O         39.4050   10.3680   84.6500 O.2    48  VAL48      -0.2864
     36  CB        36.8860    9.5070   85.6630 C.3    48  VAL48       0.0276
     37  CG1       36.2740    9.6300   84.2720 C.3    48  VAL48       0.0022
     38  CG2       35.8550    8.9520   86.6510 C.3    48  VAL48       0.0022
     39  N         29.4210   21.2900   89.6500 N.3   119  LYS119     -0.1245
     40  CA        29.6430   20.1170   88.8180 C.3   119  LYS119      0.1561
     41  C         30.3040   20.4220   87.4760 C.2   119  LYS119      0.2260
     42  O         30.6760   19.4990   86.7460 O.2   119  LYS119     -0.2867
     43  CB        28.3080   19.4010   88.5810 C.3   119  LYS119      0.0271
     44  CG        27.5880   18.9770   89.8620 C.3   119  LYS119      0.0035
     45  CD        28.2810   17.8090   90.5620 C.3   119  LYS119      0.0206
     46  CE        28.1880   16.5350   89.7270 C.3   119  LYS119      0.1093
     47  NZ        28.7100   15.3260   90.4310 N.3   119  LYS119     -0.1314
     48  N         22.8430   13.7360   88.2560 N.3   180  ASP180     -0.1225
     49  CA        24.0290   12.8930   88.3550 C.3   180  ASP180      0.1805
     50  C         23.5470   11.5200   88.8080 C.2   180  ASP180      0.2597
     51  O         22.7110   11.4290   89.7080 O.2   180  ASP180     -0.2718
     52  CB        24.9970   13.4610   89.3980 C.3   180  ASP180      0.1424
     53  CG        25.3110   14.9230   89.1620 C.2   180  ASP180      0.3668
     54  OD1       26.0370   15.2320   88.1920 O.co2 180  ASP180     -0.2456
     55  OD2       24.8180   15.7700   89.9430 O.co2 180  ASP180     -0.2456
     56  N         24.0700   10.4660   88.1850 N.am  181  PHE181     -0.1976
     57  CA        23.6940    9.0910   88.5160 C.3   181  PHE181      0.1639
     58  C         22.1870    8.8420   88.4530 C.2   181  PHE181      0.2290
     59  O         21.6700    7.9400   89.1130 O.2   181  PHE181     -0.2864
     60  CB        24.2230    8.7190   89.9030 C.3   181  PHE181      0.0560
     61  CG        25.7080    8.9070   90.0510 C.ar  181  PHE181     -0.0200
     62  CD1       26.6000    8.0920   89.3520 C.ar  181  PHE181     -0.0042
     63  CD2       26.2140    9.9290   90.8460 C.ar  181  PHE181     -0.0042
     64  CE1       27.9610    8.2880   89.4350 C.ar  181  PHE181     -0.0003
     65  CE2       27.5930   10.1390   90.9370 C.ar  181  PHE181     -0.0003
     66  CZ        28.4680    9.3160   90.2290 C.ar  181  PHE181     -0.0000
     67  N         29.2190   15.2710   80.2910 N.3   214  CYS214     -0.1221
     68  CA        28.3500   15.4500   81.4460 C.3   214  CYS214      0.1808
     69  C         29.3200   15.9900   82.4950 C.2   214  CYS214      0.2602
     70  O         30.0160   16.9720   82.2290 O.2   214  CYS214     -0.2717
     71  CB        27.7130   14.1220   81.8870 C.3   214  CYS214      0.0970
     72  SG        28.6760   12.6100   81.6200 S.3   214  CYS214     -0.0800
     73  N         29.3970   15.3700   83.6670 N.am  215  SER215     -0.1938
     74  CA        30.3370   15.8510   84.6660 C.3   215  SER215      0.2055
     75  C         31.6560   15.0730   84.5550 C.2   215  SER215      0.2643
     76  O         32.7250   15.6640   84.3900 O.2   215  SER215     -0.2714
     77  CB        29.7470   15.7130   86.0720 C.3   215  SER215      0.2130
     78  OG        30.6830   16.1370   87.0450 O.3   215  SER215     -0.2179
     79  N         31.5700   13.7490   84.6290 N.am  216  ALA216     -0.1963
     80  CA        32.7390   12.8790   84.5170 C.3   216  ALA216      0.1728
     81  C         32.9030   12.4220   83.0610 C.2   216  ALA216      0.2617
     82  O         33.9750   11.9760   82.6460 O.2   216  ALA216     -0.2715
     83  CB        32.5730   11.6710   85.4300 C.3   216  ALA216      0.0334
     84  N         31.8220   12.5210   82.2930 N.am  217  GLY217     -0.1940
     85  CA        31.8700   12.1240   80.9000 C.3   217  GLY217      0.2014
     86  C         31.7680   10.6310   80.6560 C.2   217  GLY217      0.2639
     87  O         32.3310   10.1280   79.6880 O.2   217  GLY217     -0.2714
     88  N         31.0550    9.9140   81.5150 N.am  218  ILE218     -0.1963
     89  CA        30.9130    8.4690   81.3370 C.3   218  ILE218      0.1727
     90  C         29.5030    7.9360   81.5950 C.2   218  ILE218      0.2617
     91  O         29.0420    7.0410   80.8940 O.2   218  ILE218     -0.2715
     92  CB        31.9130    7.6900   82.2390 C.3   218  ILE218      0.0290
     93  CG1       31.6420    8.0000   83.7170 C.3   218  ILE218      0.0022
     94  CG2       33.3640    8.0750   81.8750 C.3   218  ILE218      0.0023
     95  CD1       32.6160    7.3320   84.6790 C.3   218  ILE218      0.0001
     96  N         28.8180    8.4840   82.5960 N.am  219  GLY219     -0.1940
     97  CA        27.4790    8.0150   82.9190 C.3   219  GLY219      0.2014
     98  C         26.4100    8.4650   81.9430 C.2   219  GLY219      0.2638
     99  O         25.9560    7.6970   81.0920 O.2   219  GLY219     -0.2714
    100  N         25.9990    9.7180   82.0680 N.am  220  ARG220     -0.1977
    101  CA        24.9780   10.2730   81.1930 C.3   220  ARG220      0.1597
    102  C         25.4350   10.2800   79.7340 C.2   220  ARG220      0.2287
    103  O         24.6710    9.9130   78.8400 O.2   220  ARG220     -0.2864
    104  CB        24.6060   11.6920   81.6580 C.3   220  ARG220      0.0334
    105  CG        23.7440   11.7080   82.9320 C.3   220  ARG220      0.0492
    106  CD        23.7700   13.0530   83.6870 C.3   220  ARG220      0.2205
    107  NE        25.0370   13.2580   84.3890 N.pl3 220  ARG220     -0.0865
    108  CZ        25.2690   14.2360   85.2630 C.cat 220  ARG220      0.5346
    109  NH1       24.3200   15.1160   85.5590 N.pl3 220  ARG220      0.1354
    110  NH2       26.4610   14.3430   85.8370 N.pl3 220  ARG220      0.1354
    111  N         26.7160    4.4110   84.3410 N.3   261  GLN261     -0.1245
    112  CA        27.1240    4.2830   85.7370 C.3   261  GLN261      0.1566
    113  C         26.1950    3.6070   86.7370 C.2   261  GLN261      0.2260
    114  O         26.5760    3.4090   87.8930 O.2   261  GLN261     -0.2867
    115  CB        27.4950    5.6750   86.2520 C.3   261  GLN261      0.0367
    116  CG        28.8080    6.1740   85.7030 C.3   261  GLN261      0.0905
    117  CD        29.9720    5.6270   86.4900 C.2   261  GLN261      0.2608
    118  OE1       30.1690    6.0050   87.6440 O.2   261  GLN261     -0.2717
    119  NE2       30.7380    4.7200   85.8870 N.am  261  GLN261     -0.0878
    120  N         20.3700    3.2460   84.6390 N.3   265  GLN265     -0.1245
    121  CA        20.6760    3.8970   83.3670 C.3   265  GLN265      0.1566
    122  C         20.7810    2.8360   82.2700 C.2   265  GLN265      0.2260
    123  O         20.4980    3.1100   81.1040 O.2   265  GLN265     -0.2867
    124  CB        21.9940    4.6720   83.4430 C.3   265  GLN265      0.0367
    125  CG        22.0020    5.8020   84.4460 C.3   265  GLN265      0.0905
    126  CD        23.3050    6.5670   84.4340 C.2   265  GLN265      0.2608
    127  OE1       24.3710    5.9820   84.2520 O.2   265  GLN265     -0.2717
    128  NE2       23.2310    7.8770   84.6430 N.am  265  GLN265     -0.0878
@<TRIPOS>BOND
     1   103   102    2
     2    87    86    2
     3   102   101    1
     4    67    68    1
     5    86    85    1
     6    86    88   am
     7    91    90    2
     8    85    84    1
     9    99    98    2
    10   123   122    2
    11   101   104    1
    12   101   100    1
    13    89    88    1
    14    89    90    1
    15    89    92    1
    16    68    71    1
    17    68    69    1
    18    90    96   am
    19    72    71    1
    20   104   105    1
    21    94    92    1
    22    98   100   am
    23    98    97    1
    24    70    69    2
    25    92    93    1
    26   122   121    1
    27    84    81   am
    28    69    73   am
    29    96    97    1
    30    82    81    2
    31   105   106    1
    32    81    80    1
    33   121   124    1
    34   121   120    1
    35   124   125    1
    36    73    74    1
    37   106   107    1
    38    93    95    1
    39   127   126    2
    40    37    36    1
    41   111   112    1
    42   107   108    2
    43    76    75    2
    44   126   125    1
    45   126   128   am
    46    80    79    1
    47    80    83    1
    48    75    79   am
    49    75    74    1
    50    34    35    2
    51    34    33    1
    52    74    77    1
    53   108   109    1
    54   108   110    1
    55    33    36    1
    56    33    32    1
    57    36    38    1
    58   116   115    1
    59   116   117    1
    60   112   115    1
    61   112   113    1
    62   119   117   am
    63    77    78    1
    64   117   118    2
    65   113   114    2
    66    42    41    2
    67    32    26   am
    68    27    26    2
    69    41    40    1
    70    26    25    1
    71     7     9   ar
    72     7     6   ar
    73     4     3    2
    74     9    11   ar
    75     1     2    1
    76    56    57    1
    77    56    50   am
    78    54    53   ar
    79    48    49    1
    80    49    50    1
    81    49    52    1
    82    58    57    1
    83    58    59    2
    84    57    60    1
    85    43    40    1
    86    43    44    1
    87    16    15    2
    88     5     6    1
    89     5     2    1
    90    50    51    2
    91    40    39    1
    92    25    24    1
    93    25    28    1
    94     6     8   ar
    95     3     2    1
    96     3    13   am
    97    11    12    1
    98    11    10   ar
    99    53    52    1
   100    53    55   ar
   101    62    64   ar
   102    62    61   ar
   103    15    24   am
   104    15    14    1
   105    64    66   ar
   106    46    47    1
   107    46    45    1
   108    28    29    1
   109    44    45    1
   110    60    61    1
   111    61    63   ar
   112    13    14    1
   113     8    10   ar
   114    30    29   ar
   115    14    17    1
   116    66    65   ar
   117    29    31   ar
   118    63    65   ar
   119    17    18    1
   120    18    19    1
   121    19    20    1
   122    20    21    2
   123    21    23    1
   124    21    22    1
