@<TRIPOS>MOLECULE
tmp/1kb0A02.pdb
 182 173 0 0 0
SMALL
GASTEIGER

@<TRIPOS>ATOM
      1  N         11.7810   58.0900   30.5980 N.3    70  GLU70      -0.1245
      2  CA        11.2710   57.0940   29.6490 C.3    70  GLU70       0.1567
      3  C         10.9920   55.7410   30.2370 C.2    70  GLU70       0.2260
      4  O         10.4590   54.8650   29.5470 O.2    70  GLU70      -0.2867
      5  CB        12.3010   56.9350   28.5100 C.3    70  GLU70       0.0388
      6  CG        12.5210   58.2490   27.7580 C.3    70  GLU70       0.1160
      7  CD        13.2610   58.0420   26.4480 C.2    70  GLU70       0.3649
      8  OE1       13.7270   56.9410   26.1460 O.co2  70  GLU70      -0.2457
      9  OE2       13.3360   59.0250   25.6680 O.co2  70  GLU70      -0.2457
     10  N         22.3140   61.8160   21.3570 N.3   116  CYS116     -0.1221
     11  CA        21.4830   62.5080   20.3770 C.3   116  CYS116      0.1808
     12  C         20.1100   62.9130   20.8050 C.2   116  CYS116      0.2601
     13  O         19.5330   63.8190   20.1950 O.2   116  CYS116     -0.2717
     14  CB        21.2340   61.5440   19.2020 C.3   116  CYS116      0.0970
     15  SG        20.2390   59.9900   19.6220 S.3   116  CYS116     -0.0800
     16  N         19.6190   62.2510   21.8640 N.am  117  CYS117     -0.1970
     17  CA        18.1710   62.1900   22.0360 C.3   117  CYS117      0.1712
     18  C         17.6460   62.2760   23.4180 C.2   117  CYS117      0.2296
     19  O         16.6580   61.5590   23.7730 O.2   117  CYS117     -0.2864
     20  CB        17.7660   60.8090   21.4080 C.3   117  CYS117      0.0983
     21  SG        18.2770   60.5720   19.6440 S.3   117  CYS117     -0.0798
     22  N         18.1680   60.3200   28.7540 N.3   120  VAL120     -0.1245
     23  CA        17.1910   59.3370   29.1910 C.3   120  VAL120      0.1561
     24  C         17.6620   57.9640   29.5770 C.2   120  VAL120      0.2260
     25  O         18.7910   57.5700   29.3200 O.2   120  VAL120     -0.2867
     26  CB        16.1130   59.2230   28.0550 C.3   120  VAL120      0.0252
     27  CG1       15.3990   60.5950   27.9040 C.3   120  VAL120      0.0019
     28  CG2       16.7570   58.8770   26.7260 C.3   120  VAL120      0.0019
     29  N         15.6800   53.9620   29.9850 N.3   122  ARG122     -0.1245
     30  CA        14.4430   53.2190   29.8370 C.3   122  ARG122      0.1563
     31  C         14.1550   52.1910   30.9160 C.2   122  ARG122      0.2260
     32  O         13.2010   51.3980   30.7860 O.2   122  ARG122     -0.2867
     33  CB        14.3950   52.6390   28.4150 C.3   122  ARG122      0.0307
     34  CG        14.3860   53.7500   27.3660 C.3   122  ARG122      0.0489
     35  CD        14.2010   53.2020   25.9100 C.3   122  ARG122      0.2205
     36  NE        14.5660   54.3450   25.0770 N.pl3 122  ARG122     -0.0865
     37  CZ        15.8050   54.6440   24.7010 C.cat 122  ARG122      0.5346
     38  NH1       16.8320   53.8050   24.9310 N.pl3 122  ARG122      0.1354
     39  NH2       16.0710   55.9340   24.3710 N.pl3 122  ARG122      0.1354
     40  N         26.9160   56.3610   24.4990 N.3   165  THR165     -0.1218
     41  CA        26.1190   56.6410   25.7140 C.3   165  THR165      0.1862
     42  C         25.2780   55.3890   25.9660 C.2   165  THR165      0.2287
     43  O         25.1860   54.5140   25.1160 O.2   165  THR165     -0.2866
     44  CB        25.0840   57.7990   25.5190 C.3   165  THR165      0.1770
     45  OG1       24.3650   57.5650   24.2820 O.3   165  THR165     -0.2211
     46  CG2       25.7450   59.1600   25.5300 C.3   165  THR165      0.0375
     47  N         21.2940   54.4090   27.1290 N.3   167  THR167     -0.1218
     48  CA        19.9560   54.8870   27.4550 C.3   167  THR167      0.1862
     49  C         18.9550   53.7690   27.7040 C.2   167  THR167      0.2287
     50  O         17.9110   54.0000   28.2740 O.2   167  THR167     -0.2866
     51  CB        19.3700   55.7260   26.2850 C.3   167  THR167      0.1770
     52  OG1       19.4490   54.9160   25.1130 O.3   167  THR167     -0.2211
     53  CG2       20.1490   57.0440   26.0700 C.3   167  THR167      0.0375
     54  N         24.1550   53.6200   22.7200 N.3   182  GLY182     -0.1210
     55  CA        23.6830   54.4900   21.6420 C.3   182  GLY182      0.1956
     56  C         24.8660   55.2910   21.1180 C.2   182  GLY182      0.2612
     57  O         25.9340   55.3660   21.7550 O.2   182  GLY182     -0.2717
     58  N         24.6910   55.8910   19.9380 N.am  183  GLY183     -0.1942
     59  CA        25.7220   56.7110   19.3130 C.3   183  GLY183      0.2014
     60  C         25.8520   56.6570   17.8110 C.2   183  GLY183      0.2639
     61  O         26.7870   57.2560   17.2550 O.2   183  GLY183     -0.2714
     62  N         24.9370   55.9730   17.1130 N.am  184  ALA184     -0.1963
     63  CA        25.1370   55.8970   15.6790 C.3   184  ALA184      0.1728
     64  C         24.9820   57.2300   14.9690 C.2   184  ALA184      0.2616
     65  O         25.4700   57.3610   13.8210 O.2   184  ALA184     -0.2715
     66  CB        24.1940   54.7950   15.0680 C.3   184  ALA184      0.0334
     67  N         24.3740   58.2330   15.6040 N.am  185  GLU185     -0.1977
     68  CA        24.3120   59.5600   14.9170 C.3   185  GLU185      0.1602
     69  C         25.7120   60.1950   14.8910 C.2   185  GLU185      0.2287
     70  O         25.9760   61.0370   14.0710 O.2   185  GLU185     -0.2864
     71  CB        23.3800   60.5390   15.6180 C.3   185  GLU185      0.0415
     72  CG        21.9750   60.4720   15.0900 C.3   185  GLU185      0.1163
     73  CD        21.4000   59.0850   15.2280 C.2   185  GLU185      0.3649
     74  OE1       20.8640   58.7720   16.3230 O.co2 185  GLU185     -0.2457
     75  OE2       21.4900   58.2860   14.2580 O.co2 185  GLU185     -0.2457
     76  N         23.9290   50.3170   16.4980 N.3   243  THR243     -0.1218
     77  CA        23.7410   50.2950   17.9360 C.3   243  THR243      0.1862
     78  C         22.4390   49.6350   18.3670 C.2   243  THR243      0.2287
     79  O         21.3850   49.7470   17.7090 O.2   243  THR243     -0.2866
     80  CB        23.7780   51.7210   18.5150 C.3   243  THR243      0.1770
     81  OG1       23.0010   52.5830   17.6670 O.3   243  THR243     -0.2211
     82  CG2       25.2070   52.2530   18.5440 C.3   243  THR243      0.0375
     83  N         20.2870   49.9830   21.1490 N.3   245  TRP245     -0.1241
     84  CA        20.0440   50.8790   22.2690 C.3   245  TRP245      0.1605
     85  C         18.7470   50.7160   23.0230 C.2   245  TRP245      0.2264
     86  O         18.4650   51.4580   23.9610 O.2   245  TRP245     -0.2867
     87  CB        20.1740   52.3640   21.7890 C.3   245  TRP245      0.0550
     88  CG        19.4050   52.7380   20.5270 C.ar  245  TRP245      0.0003
     89  CD1       19.8530   52.6100   19.2490 C.ar  245  TRP245      0.0946
     90  CD2       18.1340   53.3600   20.4690 C.ar  245  TRP245      0.0152
     91  NE1       18.9330   53.1360   18.3800 N.ar  245  TRP245     -0.2442
     92  CE2       17.8600   53.5940   19.1020 C.ar  245  TRP245      0.0810
     93  CE3       17.2000   53.7560   21.4400 C.ar  245  TRP245      0.0012
     94  CZ2       16.6570   54.2010   18.6680 C.ar  245  TRP245      0.0191
     95  CZ3       16.0140   54.3790   21.0230 C.ar  245  TRP245      0.0001
     96  CH2       15.7570   54.5840   19.6290 C.ar  245  TRP245      0.0015
     97  N         20.4670   51.9820   13.1450 N.3   263  ASN263     -0.1240
     98  CA        20.7390   52.5780   11.8450 C.3   263  ASN263      0.1653
     99  C         22.2180   52.6580   11.4900 C.2   263  ASN263      0.2266
    100  O         23.1210   52.5110   12.3330 O.2   263  ASN263     -0.2867
    101  CB        20.1490   54.0230   11.7840 C.3   263  ASN263      0.1155
    102  CG        20.7570   54.9580   12.8380 C.2   263  ASN263      0.2627
    103  OD1       20.3300   54.9130   13.9890 O.2   263  ASN263     -0.2716
    104  ND2       21.7590   55.7590   12.4700 N.am  263  ASN263     -0.0877
    105  N         17.9350   56.6660    8.8360 N.3   308  ASP308     -0.1239
    106  CA        17.9360   56.5170   10.3110 C.3   308  ASP308      0.1674
    107  C         16.8460   55.4990   10.7090 C.2   308  ASP308      0.2266
    108  O         16.2220   55.5950   11.7630 O.2   308  ASP308     -0.2867
    109  CB        17.6530   57.8760   11.0050 C.3   308  ASP308      0.1410
    110  CG        17.9830   57.8890   12.5110 C.2   308  ASP308      0.3668
    111  OD1       18.8190   57.0950   13.0030 O.co2 308  ASP308     -0.2456
    112  OD2       17.3760   58.7570   13.2130 O.co2 308  ASP308     -0.2456
    113  N         16.1790   52.7030   12.3430 N.3   310  THR310     -0.1218
    114  CA        16.5650   51.7200   13.3300 C.3   310  THR310      0.1862
    115  C         15.5180   50.6020   13.4050 C.2   310  THR310      0.2287
    116  O         14.3410   50.7970   13.0850 O.2   310  THR310     -0.2866
    117  CB        16.5640   52.3920   14.7300 C.3   310  THR310      0.1770
    118  OG1       15.2480   52.9000   15.0250 O.3   310  THR310     -0.2211
    119  CG2       17.5580   53.5910   14.7630 C.3   310  THR310      0.0375
    120  N         10.7690   52.0820   13.1330 N.3   335  LYS335     -0.1245
    121  CA        10.6090   53.4050   12.5310 C.3   335  LYS335      0.1561
    122  C         10.1170   53.4850   11.0940 C.2   335  LYS335      0.2260
    123  O          9.4190   54.4670   10.7250 O.2   335  LYS335     -0.2867
    124  CB        11.9360   54.2080   12.5090 C.3   335  LYS335      0.0271
    125  CG        12.5030   54.6430   13.8760 C.3   335  LYS335      0.0035
    126  CD        13.5800   55.6870   13.5790 C.3   335  LYS335      0.0206
    127  CE        14.2920   56.1240   14.8330 C.3   335  LYS335      0.1093
    128  NZ        15.4200   57.0600   14.4290 N.3   335  LYS335     -0.1314
    129  N         13.2910   60.1350   10.2060 N.3   389  PRO389     -0.2116
    130  CA        14.0280   59.9110   11.4560 C.3   389  PRO389      0.1372
    131  C         13.3200   59.8520   12.7700 C.2   389  PRO389      0.2244
    132  O         13.7840   59.0840   13.6520 O.2   389  PRO389     -0.2868
    133  CB        15.1020   60.9710   11.4560 C.3   389  PRO389      0.0268
    134  CG        15.1840   61.4540   10.0550 C.3   389  PRO389      0.0207
    135  CD        13.8340   61.2540    9.4240 C.3   389  PRO389      0.0892
    136  N          8.5410   55.0090   17.4760 N.3   394  ASN394     -0.1225
    137  CA         9.8930   55.0530   18.0590 C.3   394  ASN394      0.1785
    138  C          9.9010   54.1380   19.2930 C.2   394  ASN394      0.2597
    139  O          9.1350   53.1640   19.3600 O.2   394  ASN394     -0.2718
    140  CB        10.3030   56.5220   18.3530 C.3   394  ASN394      0.1169
    141  CG        11.8180   56.7500   18.3030 C.2   394  ASN394      0.2627
    142  OD1       12.5860   56.0390   18.9720 O.2   394  ASN394     -0.2716
    143  ND2       12.2670   57.6910   17.4830 N.am  394  ASN394     -0.0877
    144  N         10.7460   54.4470   20.2810 N.am  395  TRP395     -0.1976
    145  CA        10.8910   53.5450   21.4080 C.3   395  TRP395      0.1640
    146  C          9.6440   53.3970   22.2930 C.2   395  TRP395      0.2290
    147  O          9.5580   52.4270   23.0510 O.2   395  TRP395     -0.2864
    148  CB        12.0730   54.0490   22.2910 C.3   395  TRP395      0.0576
    149  CG        11.8310   55.3940   22.8990 C.ar  395  TRP395      0.0006
    150  CD1       12.1440   56.6340   22.3510 C.ar  395  TRP395      0.0946
    151  CD2       11.0900   55.6770   24.0940 C.ar  395  TRP395      0.0152
    152  NE1       11.6260   57.6330   23.1190 N.ar  395  TRP395     -0.2442
    153  CE2       10.9690   57.0820   24.1930 C.ar  395  TRP395      0.0810
    154  CE3       10.5100   54.8700   25.0930 C.ar  395  TRP395      0.0012
    155  CZ2       10.2690   57.7040   25.2500 C.ar  395  TRP395      0.0191
    156  CZ3        9.8240   55.4760   26.1580 C.ar  395  TRP395      0.0001
    157  CH2        9.7040   56.8790   26.2200 C.ar  395  TRP395      0.0015
    158  N          4.3180   61.9870   19.1760 N.3   479  TRP479     -0.1241
    159  CA         5.1620   61.7300   20.3490 C.3   479  TRP479      0.1605
    160  C          4.4110   61.5120   21.6360 C.2   479  TRP479      0.2264
    161  O          4.7800   62.0030   22.6970 O.2   479  TRP479     -0.2867
    162  CB         6.2080   62.8630   20.4940 C.3   479  TRP479      0.0550
    163  CG         7.5130   62.3970   21.0930 C.ar  479  TRP479      0.0003
    164  CD1        7.9540   62.6270   22.3900 C.ar  479  TRP479      0.0946
    165  CD2        8.5590   61.6690   20.4230 C.ar  479  TRP479      0.0152
    166  NE1        9.2280   62.0720   22.5370 N.ar  479  TRP479     -0.2442
    167  CE2        9.6220   61.4930   21.3580 C.ar  479  TRP479      0.0810
    168  CE3        8.7150   61.1550   19.1320 C.ar  479  TRP479      0.0012
    169  CZ2       10.8030   60.8330   21.0420 C.ar  479  TRP479      0.0191
    170  CZ3        9.9040   60.4860   18.8130 C.ar  479  TRP479      0.0001
    171  CH2       10.9370   60.3330   19.7670 C.ar  479  TRP479      0.0015
    172  N         12.8000   62.9150   25.5090 N.3   542  GLY542     -0.1210
    173  CA        13.1440   62.1090   24.3360 C.3   542  GLY542      0.1956
    174  C         13.4990   63.0990   23.2230 C.2   542  GLY542      0.2611
    175  O         13.3860   64.3400   23.4030 O.2   542  GLY542     -0.2717
    176  N         13.8920   62.5970   22.0430 N.am  543  VAL543     -0.1979
    177  CA        14.4490   63.5640   21.0710 C.3   543  VAL543      0.1595
    178  C         13.4810   64.6750   20.6220 C.2   543  VAL543      0.2287
    179  O         13.8270   65.8670   20.5740 O.2   543  VAL543     -0.2864
    180  CB        15.0630   62.8180   19.8850 C.3   543  VAL543      0.0276
    181  CG1       13.9770   62.1170   19.0280 C.3   543  VAL543      0.0022
    182  CG2       15.9750   63.7460   19.0520 C.3   543  VAL543      0.0022
@<TRIPOS>BOND
     1   105   106    1
     2   135   134    1
     3   135   129    1
     4   134   133    1
     5   129   130    1
     6   106   107    1
     7   106   109    1
     8   107   108    2
     9   123   122    2
    10   109   110    1
    11   122   121    1
    12   133   130    1
    13   130   131    1
    14    99    98    1
    15    99   100    2
    16   101    98    1
    17   101   102    1
    18    98    97    1
    19   113   114    1
    20   104   102   am
    21   124   121    1
    22   124   125    1
    23   110   111   ar
    24   110   112   ar
    25   121   120    1
    26   131   132    2
    27   102   103    2
    28   116   115    2
    29   114   115    1
    30   114   117    1
    31   126   125    1
    32   126   127    1
    33    65    64    2
    34    70    69    2
    35    75    73   ar
    36   128   127    1
    37   117   119    1
    38   117   118    1
    39    69    68    1
    40    68    67    1
    41    68    71    1
    42    64    67   am
    43    64    63    1
    44    66    63    1
    45    72    73    1
    46    72    71    1
    47    73    74   ar
    48    63    62    1
    49    76    77    1
    50    62    60   am
    51    61    60    2
    52   136   137    1
    53   143   141   am
    54    81    80    1
    55    79    78    2
    56    60    59    1
    57    77    78    1
    58    77    80    1
    59   137   140    1
    60   137   138    1
    61   141   140    1
    62   141   142    2
    63    91    92   ar
    64    91    89   ar
    65    80    82    1
    66    94    92   ar
    67    94    96   ar
    68   170   168   ar
    69   170   171   ar
    70   181   180    1
    71   182   180    1
    72    92    90   ar
    73   168   165   ar
    74   158   159    1
    75    14    15    1
    76    14    11    1
    77    89    88   ar
    78   138   139    2
    79   138   144   am
    80    59    58    1
    81    15    21    1
    82    96    95   ar
    83    21    20    1
    84   171   169   ar
    85   180   177    1
    86    58    56   am
    87    13    12    2
    88   144   145    1
    89   159   162    1
    90   159   160    1
    91    11    12    1
    92    11    10    1
    93   165   163   ar
    94   165   167   ar
    95    90    88   ar
    96    90    93   ar
    97   162   163    1
    98    88    87    1
    99   179   178    2
   100   178   177    1
   101    12    16   am
   102    95    93   ar
   103   169   167   ar
   104   177   176    1
   105   163   164   ar
   106    56    55    1
   107    56    57    2
   108    83    84    1
   109   167   166   ar
   110   145   148    1
   111   145   146    1
   112    20    17    1
   113   160   161    2
   114    55    54    1
   115    87    84    1
   116    16    17    1
   117    17    18    1
   118   176   174   am
   119    84    85    1
   120   148   149    1
   121   146   147    2
   122   150   149   ar
   123   150   152   ar
   124   164   166   ar
   125   149   151   ar
   126    85    86    2
   127   152   153   ar
   128   174   175    2
   129   174   173    1
   130    18    19    2
   131   151   153   ar
   132   151   154   ar
   133   153   155   ar
   134    45    44    1
   135   173   172    1
   136    39    37    1
   137    40    41    1
   138    37    38    1
   139    37    36    2
   140    36    35    1
   141   154   156   ar
   142    52    51    1
   143    43    42    2
   144   155   157   ar
   145    44    46    1
   146    44    41    1
   147     9     7   ar
   148    41    42    1
   149    35    34    1
   150    53    51    1
   151     8     7   ar
   152   156   157   ar
   153    51    48    1
   154     7     6    1
   155    28    26    1
   156    47    48    1
   157    34    33    1
   158    48    49    1
   159    49    50    2
   160     6     5    1
   161    27    26    1
   162    26    23    1
   163    33    30    1
   164     5     2    1
   165    22    23    1
   166    23    24    1
   167    25    24    2
   168     4     3    2
   169     2     3    1
   170     2     1    1
   171    30    29    1
   172    30    31    1
   173    32    31    2
