@<TRIPOS>MOLECULE
tmp/1kb0A01.pdb
 129 126 0 0 0
SMALL
GASTEIGER

@<TRIPOS>ATOM
      1  N         22.3140   61.8160   21.3570 N.3   116  CYS116     -0.1221
      2  CA        21.4830   62.5080   20.3770 C.3   116  CYS116      0.1808
      3  C         20.1100   62.9130   20.8050 C.2   116  CYS116      0.2601
      4  O         19.5330   63.8190   20.1950 O.2   116  CYS116     -0.2717
      5  CB        21.2340   61.5440   19.2020 C.3   116  CYS116      0.0970
      6  SG        20.2390   59.9900   19.6220 S.3   116  CYS116     -0.0800
      7  N         19.6190   62.2510   21.8640 N.am  117  CYS117     -0.1970
      8  CA        18.1710   62.1900   22.0360 C.3   117  CYS117      0.1712
      9  C         17.6460   62.2760   23.4180 C.2   117  CYS117      0.2296
     10  O         16.6580   61.5590   23.7730 O.2   117  CYS117     -0.2864
     11  CB        17.7660   60.8090   21.4080 C.3   117  CYS117      0.0983
     12  SG        18.2770   60.5720   19.6440 S.3   117  CYS117     -0.0798
     13  N         24.3740   58.2330   15.6040 N.3   185  GLU185     -0.1245
     14  CA        24.3120   59.5600   14.9170 C.3   185  GLU185      0.1567
     15  C         25.7120   60.1950   14.8910 C.2   185  GLU185      0.2260
     16  O         25.9760   61.0370   14.0710 O.2   185  GLU185     -0.2867
     17  CB        23.3800   60.5390   15.6180 C.3   185  GLU185      0.0388
     18  CG        21.9750   60.4720   15.0900 C.3   185  GLU185      0.1160
     19  CD        21.4000   59.0850   15.2280 C.2   185  GLU185      0.3649
     20  OE1       20.8640   58.7720   16.3230 O.co2 185  GLU185     -0.2457
     21  OE2       21.4900   58.2860   14.2580 O.co2 185  GLU185     -0.2457
     22  N         24.4030   58.1220    8.1750 N.3   267  TRP267     -0.1241
     23  CA        23.0680   57.6950    7.7200 C.3   267  TRP267      0.1605
     24  C         23.0070   57.4160    6.2370 C.2   267  TRP267      0.2264
     25  O         22.3160   56.4830    5.7870 O.2   267  TRP267     -0.2867
     26  CB        22.0380   58.7970    8.0010 C.3   267  TRP267      0.0550
     27  CG        21.7080   59.0680    9.4380 C.ar  267  TRP267      0.0003
     28  CD1       22.3260   58.6010   10.5750 C.ar  267  TRP267      0.0946
     29  CD2       20.6590   59.9260    9.8720 C.ar  267  TRP267      0.0152
     30  NE1       21.6980   59.1320   11.6970 N.ar  267  TRP267     -0.2442
     31  CE2       20.6720   59.9530   11.2890 C.ar  267  TRP267      0.0810
     32  CE3       19.6830   60.6770    9.1890 C.ar  267  TRP267      0.0012
     33  CZ2       19.7400   60.7160   12.0350 C.ar  267  TRP267      0.0191
     34  CZ3       18.7630   61.4300    9.9260 C.ar  267  TRP267      0.0001
     35  CH2       18.8010   61.4490   11.3300 C.ar  267  TRP267      0.0015
     36  N         17.9350   56.6660    8.8360 N.3   308  ASP308     -0.1239
     37  CA        17.9360   56.5170   10.3110 C.3   308  ASP308      0.1674
     38  C         16.8460   55.4990   10.7090 C.2   308  ASP308      0.2266
     39  O         16.2220   55.5950   11.7630 O.2   308  ASP308     -0.2867
     40  CB        17.6530   57.8760   11.0050 C.3   308  ASP308      0.1410
     41  CG        17.9830   57.8890   12.5110 C.2   308  ASP308      0.3668
     42  OD1       18.8190   57.0950   13.0030 O.co2 308  ASP308     -0.2456
     43  OD2       17.3760   58.7570   13.2130 O.co2 308  ASP308     -0.2456
     44  N         10.7690   52.0820   13.1330 N.3   335  LYS335     -0.1245
     45  CA        10.6090   53.4050   12.5310 C.3   335  LYS335      0.1561
     46  C         10.1170   53.4850   11.0940 C.2   335  LYS335      0.2260
     47  O          9.4190   54.4670   10.7250 O.2   335  LYS335     -0.2867
     48  CB        11.9360   54.2080   12.5090 C.3   335  LYS335      0.0271
     49  CG        12.5030   54.6430   13.8760 C.3   335  LYS335      0.0035
     50  CD        13.5800   55.6870   13.5790 C.3   335  LYS335      0.0206
     51  CE        14.2920   56.1240   14.8330 C.3   335  LYS335      0.1093
     52  NZ        15.4200   57.0600   14.4290 N.3   335  LYS335     -0.1314
     53  N         13.2910   60.1350   10.2060 N.3   389  PRO389     -0.2102
     54  CA        14.0280   59.9110   11.4560 C.3   389  PRO389      0.1504
     55  C         13.3200   59.8520   12.7700 C.2   389  PRO389      0.2575
     56  O         13.7840   59.0840   13.6520 O.2   389  PRO389     -0.2718
     57  CB        15.1020   60.9710   11.4560 C.3   389  PRO389      0.0282
     58  CG        15.1840   61.4540   10.0550 C.3   389  PRO389      0.0208
     59  CD        13.8340   61.2540    9.4240 C.3   389  PRO389      0.0893
     60  N         12.2680   60.6410   12.9710 N.am  390  TYR390     -0.1977
     61  CA        11.5470   60.5010   14.2390 C.3   390  TYR390      0.1639
     62  C         10.7930   59.1630   14.3260 C.2   390  TYR390      0.2290
     63  O         10.3950   58.7310   15.4370 O.2   390  TYR390     -0.2864
     64  CB        10.5720   61.6740   14.4580 C.3   390  TYR390      0.0560
     65  CG        11.3040   62.9820   14.6920 C.ar  390  TYR390     -0.0198
     66  CD1       11.6650   63.7800   13.6220 C.ar  390  TYR390     -0.0009
     67  CD2       11.6110   63.4150   15.9920 C.ar  390  TYR390     -0.0009
     68  CE1       12.2980   65.0120   13.8240 C.ar  390  TYR390      0.0417
     69  CE2       12.2630   64.6250   16.1990 C.ar  390  TYR390      0.0417
     70  CZ        12.5890   65.4150   15.1370 C.ar  390  TYR390      0.1957
     71  OH        13.2020   66.6300   15.2920 O.3   390  TYR390     -0.2866
     72  N          8.5410   55.0090   17.4760 N.3   394  ASN394     -0.1240
     73  CA         9.8930   55.0530   18.0590 C.3   394  ASN394      0.1653
     74  C          9.9010   54.1380   19.2930 C.2   394  ASN394      0.2266
     75  O          9.1350   53.1640   19.3600 O.2   394  ASN394     -0.2867
     76  CB        10.3030   56.5220   18.3530 C.3   394  ASN394      0.1155
     77  CG        11.8180   56.7500   18.3030 C.2   394  ASN394      0.2627
     78  OD1       12.5860   56.0390   18.9720 O.2   394  ASN394     -0.2716
     79  ND2       12.2670   57.6910   17.4830 N.am  394  ASN394     -0.0877
     80  N         10.0610   65.5560    8.0840 N.3   416  VAL416     -0.1245
     81  CA        11.4930   65.8150    7.8850 C.3   416  VAL416      0.1561
     82  C         11.8160   65.6270    6.4160 C.2   416  VAL416      0.2260
     83  O         11.2750   64.7190    5.7600 O.2   416  VAL416     -0.2867
     84  CB        12.3740   64.7960    8.6940 C.3   416  VAL416      0.0252
     85  CG1       13.8890   64.9860    8.3700 C.3   416  VAL416      0.0019
     86  CG2       12.1580   65.0250   10.2040 C.3   416  VAL416      0.0019
     87  N         28.0020   65.0690   15.7600 N.3   440  TRP440     -0.1241
     88  CA        27.1400   64.2540   14.8650 C.3   440  TRP440      0.1605
     89  C         27.8250   64.0990   13.5010 C.2   440  TRP440      0.2264
     90  O         28.6060   64.9700   13.0500 O.2   440  TRP440     -0.2867
     91  CB        25.7910   64.9230   14.6450 C.3   440  TRP440      0.0550
     92  CG        24.8140   64.8560   15.8370 C.ar  440  TRP440      0.0003
     93  CD1       25.0830   65.1430   17.1750 C.ar  440  TRP440      0.0946
     94  CD2       23.4220   64.5730   15.7690 C.ar  440  TRP440      0.0152
     95  NE1       23.9110   65.0770   17.9110 N.ar  440  TRP440     -0.2442
     96  CE2       22.8790   64.7270   17.0700 C.ar  440  TRP440      0.0810
     97  CE3       22.5690   64.2100   14.7240 C.ar  440  TRP440      0.0012
     98  CZ2       21.5260   64.5340   17.3490 C.ar  440  TRP440      0.0191
     99  CZ3       21.2170   64.0000   14.9920 C.ar  440  TRP440      0.0001
    100  CH2       20.6940   64.1550   16.2880 C.ar  440  TRP440      0.0015
    101  N         19.3800   68.6840    6.4550 N.3   446  PHE446     -0.1241
    102  CA        17.9760   68.6090    6.8430 C.3   446  PHE446      0.1605
    103  C         17.1650   69.7810    6.3950 C.2   446  PHE446      0.2264
    104  O         17.6010   70.9360    6.5490 O.2   446  PHE446     -0.2867
    105  CB        17.8240   68.5100    8.3590 C.3   446  PHE446      0.0534
    106  CG        18.3470   67.2330    8.9340 C.ar  446  PHE446     -0.0203
    107  CD1       19.7110   66.9570    8.8980 C.ar  446  PHE446     -0.0042
    108  CD2       17.4900   66.3270    9.5450 C.ar  446  PHE446     -0.0042
    109  CE1       20.2260   65.7760    9.4690 C.ar  446  PHE446     -0.0003
    110  CE2       18.0010   65.1420   10.1230 C.ar  446  PHE446     -0.0003
    111  CZ        19.3630   64.8840   10.0730 C.ar  446  PHE446     -0.0000
    112  N         13.8920   62.5970   22.0430 N.3   543  VAL543     -0.1245
    113  CA        14.4490   63.5640   21.0710 C.3   543  VAL543      0.1561
    114  C         13.4810   64.6750   20.6220 C.2   543  VAL543      0.2260
    115  O         13.8270   65.8670   20.5740 O.2   543  VAL543     -0.2867
    116  CB        15.0630   62.8180   19.8850 C.3   543  VAL543      0.0252
    117  CG1       13.9770   62.1170   19.0280 C.3   543  VAL543      0.0019
    118  CG2       15.9750   63.7460   19.0520 C.3   543  VAL543      0.0019
    119  N         19.7320   70.6460   17.1330 N.3   600  PHE600     -0.1241
    120  CA        19.1160   69.4280   17.6500 C.3   600  PHE600      0.1605
    121  C         18.9100   69.4030   19.1800 C.2   600  PHE600      0.2264
    122  O         18.4610   68.4260   19.7810 O.2   600  PHE600     -0.2867
    123  CB        19.8340   68.1730   17.1100 C.3   600  PHE600      0.0534
    124  CG        19.7130   68.0030   15.5780 C.ar  600  PHE600     -0.0203
    125  CD1       20.6630   67.2680   14.8800 C.ar  600  PHE600     -0.0042
    126  CD2       18.6460   68.5550   14.8840 C.ar  600  PHE600     -0.0042
    127  CE1       20.5530   67.0730   13.4800 C.ar  600  PHE600     -0.0003
    128  CE2       18.5400   68.3490   13.4630 C.ar  600  PHE600     -0.0003
    129  CZ        19.4970   67.6150   12.8080 C.ar  600  PHE600     -0.0000
@<TRIPOS>BOND
     1    83    82    2
     2    25    24    2
     3    24    23    1
     4   103   104    2
     5   103   102    1
     6    82    81    1
     7   101   102    1
     8   102   105    1
     9    23    26    1
    10    23    22    1
    11    81    80    1
    12    81    84    1
    13    26    27    1
    14   105   106    1
    15    85    84    1
    16    84    86    1
    17    36    37    1
    18   107   106   ar
    19   107   109   ar
    20   106   108   ar
    21    32    29   ar
    22    32    34   ar
    23    59    58    1
    24    59    53    1
    25    27    29   ar
    26    27    28   ar
    27   109   111   ar
    28   108   110   ar
    29    29    31   ar
    30    34    35   ar
    31    58    57    1
    32   111   110   ar
    33    53    54    1
    34    37    38    1
    35    37    40    1
    36    28    30   ar
    37    38    39    2
    38    47    46    2
    39    40    41    1
    40    46    45    1
    41    31    30   ar
    42    31    33   ar
    43    35    33   ar
    44    57    54    1
    45    54    55    1
    46    48    45    1
    47    48    49    1
    48    41    42   ar
    49    41    43   ar
    50    45    44    1
    51    55    60   am
    52    55    56    2
    53   129   128   ar
    54   129   127   ar
    55    60    61    1
    56    90    89    2
    57   128   126   ar
    58   127   125   ar
    59    89    88    1
    60    50    49    1
    61    50    51    1
    62    66    68   ar
    63    66    65   ar
    64    68    70   ar
    65    16    15    2
    66    61    62    1
    67    61    64    1
    68    21    19   ar
    69    62    63    2
    70    52    51    1
    71    64    65    1
    72    91    88    1
    73    91    92    1
    74    65    67   ar
    75    97    99   ar
    76    97    94   ar
    77    88    87    1
    78   125   124   ar
    79   126   124   ar
    80    15    14    1
    81    14    13    1
    82    14    17    1
    83    99   100   ar
    84    18    19    1
    85    18    17    1
    86    70    71    1
    87    70    69   ar
    88    19    20   ar
    89   124   123    1
    90    94    92   ar
    91    94    96   ar
    92    92    93   ar
    93    67    69   ar
    94   100    98   ar
    95    96    98   ar
    96    96    95   ar
    97   123   120    1
    98   119   120    1
    99    93    95   ar
   100    72    73    1
   101    79    77   am
   102   120   121    1
   103    73    76    1
   104    73    74    1
   105    77    76    1
   106    77    78    2
   107   117   116    1
   108   118   116    1
   109   121   122    2
   110     5     6    1
   111     5     2    1
   112    74    75    2
   113     6    12    1
   114    12    11    1
   115   116   113    1
   116     4     3    2
   117     2     3    1
   118     2     1    1
   119   115   114    2
   120   114   113    1
   121     3     7   am
   122   113   112    1
   123    11     8    1
   124     7     8    1
   125     8     9    1
   126     9    10    2
