@<TRIPOS>MOLECULE
tmp/1kb9C04.pdb
 121 114 0 0 0
SMALL
GASTEIGER

@<TRIPOS>ATOM
      1  N        -15.1390   52.3660    3.3210 N.3    38  LEU38      -0.1245
      2  CA       -15.4630   51.3960    4.3560 C.3    38  LEU38       0.1561
      3  C        -15.4110   49.9870    3.7470 C.2    38  LEU38       0.2260
      4  O        -14.8590   49.0670    4.3590 O.2    38  LEU38      -0.2867
      5  CB       -16.8630   51.6820    4.9240 C.3    38  LEU38       0.0270
      6  CG       -17.2590   51.2230    6.3390 C.3    38  LEU38       0.0019
      7  CD1      -18.6610   50.6930    6.2910 C.3    38  LEU38       0.0001
      8  CD2      -16.3180   50.1720    6.9200 C.3    38  LEU38       0.0001
      9  N        -11.9020   48.8100    3.2570 N.3    41  VAL41      -0.1231
     10  CA       -11.3400   48.3830    4.5350 C.3    41  VAL41       0.1692
     11  C        -11.8580   46.9930    4.9300 C.2    41  VAL41       0.2591
     12  O        -11.0630   46.1200    5.2530 O.2    41  VAL41      -0.2718
     13  CB       -11.6130   49.4190    5.6740 C.3    41  VAL41       0.0266
     14  CG1      -11.1710   48.8510    7.0290 C.3    41  VAL41       0.0020
     15  CG2      -10.8620   50.7330    5.3900 C.3    41  VAL41       0.0020
     16  N        -13.1730   46.7750    4.8690 N.am   42  ILE42      -0.1980
     17  CA       -13.7290   45.4630    5.2000 C.3    42  ILE42       0.1595
     18  C        -13.1160   44.3370    4.3540 C.2    42  ILE42       0.2287
     19  O        -12.8480   43.2500    4.8700 O.2    42  ILE42      -0.2864
     20  CB       -15.2670   45.4130    5.0300 C.3    42  ILE42       0.0276
     21  CG1      -15.9590   46.1970    6.1480 C.3    42  ILE42       0.0022
     22  CG2      -15.7670   43.9460    5.0500 C.3    42  ILE42       0.0022
     23  CD1      -17.4520   46.4020    5.8930 C.3    42  ILE42       0.0001
     24  N         -9.1760   43.8830    5.5440 N.3    45  VAL45      -0.1231
     25  CA        -9.0390   43.2880    6.8630 C.3    45  VAL45       0.1692
     26  C         -9.4550   41.8070    6.8770 C.2    45  VAL45       0.2592
     27  O         -8.6720   40.9510    7.3100 O.2    45  VAL45      -0.2718
     28  CB        -9.8390   44.0790    7.9090 C.3    45  VAL45       0.0266
     29  CG1       -9.7800   43.3660    9.2600 C.3    45  VAL45       0.0020
     30  CG2       -9.2850   45.5050    8.0250 C.3    45  VAL45       0.0020
     31  N        -10.6520   41.5000    6.3620 N.am   46  THR46      -0.1953
     32  CA       -11.1390   40.1130    6.3240 C.3    46  THR46       0.1897
     33  C        -10.2840   39.2020    5.4420 C.2    46  THR46       0.2313
     34  O        -10.0920   38.0290    5.7490 O.2    46  THR46      -0.2863
     35  CB       -12.6350   40.0020    5.8890 C.3    46  THR46       0.1794
     36  OG1      -12.8600   40.7190    4.6610 O.3    46  THR46      -0.2208
     37  CG2      -13.5380   40.5460    6.9770 C.3    46  THR46       0.0378
     38  N        -12.0170   29.6520   14.1990 N.3    73  HIS73      -0.1226
     39  CA       -13.0170   30.3120   15.0460 C.3    73  HIS73       0.1752
     40  C        -13.4970   31.5950   14.3890 C.2    73  HIS73       0.2596
     41  O        -12.7040   32.4990   14.0900 O.2    73  HIS73      -0.2718
     42  CB       -12.4720   30.5700   16.4570 C.3    73  HIS73       0.0759
     43  CG       -12.0190   29.3220   17.1500 C.ar   73  HIS73       0.0818
     44  ND1      -12.8450   28.2310   17.3250 N.ar   73  HIS73      -0.2268
     45  CD2      -10.8000   28.9470   17.6100 C.ar   73  HIS73       0.1154
     46  CE1      -12.1500   27.2360   17.8500 C.ar   73  HIS73       0.1986
     47  NE2      -10.9070   27.6440   18.0320 N.ar   73  HIS73      -0.2212
     48  N        -14.7980   31.6390   14.1250 N.am   74  ASN74      -0.1974
     49  CA       -15.4380   32.7780   13.4700 C.3    74  ASN74       0.1688
     50  C        -15.0550   32.8250   11.9820 C.2    74  ASN74       0.2292
     51  O        -15.2950   33.8210   11.3120 O.2    74  ASN74      -0.2864
     52  CB       -15.0440   34.0970   14.1520 C.3    74  ASN74       0.1181
     53  CG       -15.5220   34.1830   15.5970 C.2    74  ASN74       0.2629
     54  OD1      -16.6960   33.9710   15.8880 O.2    74  ASN74      -0.2716
     55  ND2      -14.6100   34.5240   16.5040 N.am   74  ASN74      -0.0877
     56  N        -17.7090   33.6620    9.4530 N.3    77  ILE77      -0.1245
     57  CA       -18.0640   35.0770    9.5070 C.3    77  ILE77       0.1561
     58  C        -17.1000   35.8640    8.6220 C.2    77  ILE77       0.2260
     59  O        -17.4980   36.7990    7.9400 O.2    77  ILE77      -0.2867
     60  CB       -17.9580   35.6530   10.9500 C.3    77  ILE77       0.0252
     61  CG1      -19.0890   35.1260   11.8230 C.3    77  ILE77       0.0019
     62  CG2      -18.0110   37.1790   10.9340 C.3    77  ILE77       0.0019
     63  CD1      -19.0010   35.6110   13.2830 C.3    77  ILE77       0.0001
     64  N        -18.3760   37.5570    5.2190 N.3    81  LEU81      -0.1245
     65  CA       -18.2410   39.0220    5.1930 C.3    81  LEU81       0.1561
     66  C        -17.5140   39.4190    3.9020 C.2    81  LEU81       0.2260
     67  O        -17.9510   40.3040    3.1700 O.2    81  LEU81      -0.2867
     68  CB       -17.4180   39.5220    6.3780 C.3    81  LEU81       0.0270
     69  CG       -18.1720   40.3050    7.4510 C.3    81  LEU81       0.0019
     70  CD1      -17.1720   40.8100    8.4930 C.3    81  LEU81       0.0001
     71  CD2      -18.9100   41.4680    6.8310 C.3    81  LEU81       0.0001
     72  N        -24.2320   52.7780    9.4190 N.3   234  PHE234     -0.1241
     73  CA       -24.9630   51.8070   10.2230 C.3   234  PHE234      0.1605
     74  C        -26.0140   51.0810    9.3960 C.2   234  PHE234      0.2264
     75  O        -26.1620   49.8630    9.5090 O.2   234  PHE234     -0.2867
     76  CB       -25.5910   52.4570   11.4630 C.3   234  PHE234      0.0534
     77  CG       -24.5930   52.8380   12.5240 C.ar  234  PHE234     -0.0203
     78  CD1      -24.6580   54.0820   13.1430 C.ar  234  PHE234     -0.0042
     79  CD2      -23.5760   51.9580   12.8920 C.ar  234  PHE234     -0.0042
     80  CE1      -23.7250   54.4450   14.1090 C.ar  234  PHE234     -0.0003
     81  CE2      -22.6340   52.3130   13.8570 C.ar  234  PHE234     -0.0003
     82  CZ       -22.7070   53.5570   14.4670 C.ar  234  PHE234     -0.0000
     83  N        -24.2080   48.5640    7.3960 N.3   237  MET237     -0.1245
     84  CA       -23.8070   47.4180    8.2070 C.3   237  MET237      0.1570
     85  C        -24.9820   46.5070    8.5680 C.2   237  MET237      0.2261
     86  O        -24.8540   45.2840    8.5130 O.2   237  MET237     -0.2867
     87  CB       -23.0800   47.8760    9.4650 C.3   237  MET237      0.0387
     88  CG       -21.6780   48.3570    9.2150 C.3   237  MET237      0.0595
     89  SD       -20.9810   49.0560   10.7200 S.3   237  MET237     -0.1393
     90  CE       -19.2960   48.5960   10.5280 C.3   237  MET237      0.0692
     91  N        -25.8560   44.4740    5.4700 N.3   240  LEU240     -0.1231
     92  CA       -24.7970   43.5050    5.2050 C.3   240  LEU240      0.1693
     93  C        -24.8990   42.3640    6.2230 C.2   240  LEU240      0.2591
     94  O        -24.7460   41.1910    5.8670 O.2   240  LEU240     -0.2718
     95  CB       -23.4250   44.1710    5.2720 C.3   240  LEU240      0.0284
     96  CG       -22.1890   43.3000    5.0230 C.3   240  LEU240      0.0019
     97  CD1      -22.2730   42.5640    3.7040 C.3   240  LEU240      0.0001
     98  CD2      -20.9340   44.1780    5.0550 C.3   240  LEU240      0.0001
     99  N        -25.2200   42.7220    7.4700 N.am  241  ALA241     -0.1980
    100  CA       -25.3740   41.7560    8.5600 C.3   241  ALA241      0.1597
    101  C        -26.5140   40.7850    8.2800 C.2   241  ALA241      0.2287
    102  O        -26.3590   39.5900    8.5020 O.2   241  ALA241     -0.2864
    103  CB       -25.6010   42.4700    9.8910 C.3   241  ALA241      0.0319
    104  N        -25.0340   38.3270    5.8090 N.3   244  VAL244     -0.1231
    105  CA       -23.9740   37.5160    6.3900 C.3   244  VAL244      0.1692
    106  C        -24.4540   36.4520    7.3690 C.2   244  VAL244      0.2592
    107  O        -23.9910   35.3100    7.3350 O.2   244  VAL244     -0.2718
    108  CB       -22.8870   38.4120    7.0520 C.3   244  VAL244      0.0266
    109  CG1      -21.8330   37.5700    7.7570 C.3   244  VAL244      0.0020
    110  CG2      -22.2180   39.2680    5.9930 C.3   244  VAL244      0.0020
    111  N        -25.4040   36.8180    8.2190 N.am  245  PHE245     -0.1976
    112  CA       -25.9260   35.8950    9.2200 C.3   245  PHE245      0.1639
    113  C        -27.1860   35.1160    8.8050 C.2   245  PHE245      0.2290
    114  O        -27.3180   33.9280    9.1040 O.2   245  PHE245     -0.2864
    115  CB       -26.1560   36.6470   10.5450 C.3   245  PHE245      0.0560
    116  CG       -24.8880   37.1600   11.1800 C.ar  245  PHE245     -0.0200
    117  CD1      -24.4480   38.4650   10.9480 C.ar  245  PHE245     -0.0042
    118  CD2      -24.1060   36.3270   11.9760 C.ar  245  PHE245     -0.0042
    119  CE1      -23.2470   38.9300   11.4950 C.ar  245  PHE245     -0.0003
    120  CE2      -22.9050   36.7810   12.5250 C.ar  245  PHE245     -0.0003
    121  CZ       -22.4760   38.0840   12.2830 C.ar  245  PHE245     -0.0000
@<TRIPOS>BOND
     1    67    66    2
     2     9    10    1
     3     1     2    1
     4    97    96    1
     5     3     2    1
     6     3     4    2
     7    66    65    1
     8    18    19    2
     9    18    17    1
    10     2     5    1
    11    10    11    1
    12    10    13    1
    13    36    35    1
    14    16    11   am
    15    16    17    1
    16     5     6    1
    17    11    12    2
    18    96    98    1
    19    96    95    1
    20    20    22    1
    21    20    17    1
    22    20    21    1
    23    65    64    1
    24    65    68    1
    25    92    95    1
    26    92    91    1
    27    92    93    1
    28    15    13    1
    29    33    34    2
    30    33    32    1
    31    24    25    1
    32    13    14    1
    33   104   105    1
    34    94    93    2
    35    35    32    1
    36    35    37    1
    37    23    21    1
    38   110   108    1
    39    93    99   am
    40     7     6    1
    41    32    31    1
    42     6     8    1
    43    31    26   am
    44    68    69    1
    45   105   108    1
    46   105   106    1
    47    71    69    1
    48    25    26    1
    49    25    28    1
    50    26    27    2
    51   108   109    1
    52   107   106    2
    53   106   111   am
    54    83    84    1
    55    69    70    1
    56    99   100    1
    57    28    30    1
    58    28    29    1
    59    59    58    2
    60    84    85    1
    61    84    87    1
    62   111   112    1
    63   101   102    2
    64   101   100    1
    65    86    85    2
    66   100   103    1
    67    58    57    1
    68   113   114    2
    69   113   112    1
    70    88    87    1
    71    88    89    1
    72   112   115    1
    73    74    75    2
    74    74    73    1
    75    72    73    1
    76    56    57    1
    77    57    60    1
    78    73    76    1
    79    90    89    1
    80   115   116    1
    81    62    60    1
    82   117   116   ar
    83   117   119   ar
    84    60    61    1
    85   116   118   ar
    86    51    50    2
    87    76    77    1
    88   119   121   ar
    89    61    63    1
    90   118   120   ar
    91    50    49    1
    92   121   120   ar
    93    77    79   ar
    94    77    78   ar
    95    79    81   ar
    96    78    80   ar
    97    49    48    1
    98    49    52    1
    99    81    82   ar
   100    41    40    2
   101    80    82   ar
   102    48    40   am
   103    52    53    1
   104    38    39    1
   105    40    39    1
   106    39    42    1
   107    53    54    2
   108    53    55   am
   109    42    43    1
   110    43    44   ar
   111    43    45   ar
   112    44    46   ar
   113    45    47   ar
   114    46    47   ar
