@<TRIPOS>MOLECULE
tmp/1kb9C06.pdb
 176 170 0 0 0
SMALL
GASTEIGER

@<TRIPOS>ATOM
      1  N        -27.0390   65.8540   -0.7420 N.3    27  ASN27      -0.1225
      2  CA       -27.9780   64.8940   -0.1710 C.3    27  ASN27       0.1785
      3  C        -27.3200   63.5440    0.1270 C.2    27  ASN27       0.2597
      4  O        -26.1320   63.3690   -0.1230 O.2    27  ASN27      -0.2718
      5  CB       -29.2050   64.7350   -1.0940 C.3    27  ASN27       0.1169
      6  CG       -28.8410   64.2150   -2.4850 C.2    27  ASN27       0.2627
      7  OD1      -27.9480   63.3850   -2.6360 O.2    27  ASN27      -0.2716
      8  ND2      -29.5260   64.7160   -3.5040 N.am   27  ASN27      -0.0877
      9  N        -28.0980   62.5860    0.6270 N.am   28  TYR28      -0.1962
     10  CA       -27.5810   61.2650    0.9680 C.3    28  TYR28       0.1771
     11  C        -26.8860   60.5030   -0.1640 C.2    28  TYR28       0.2619
     12  O        -26.2040   59.5090    0.0820 O.2    28  TYR28      -0.2715
     13  CB       -28.6730   60.3970    1.6000 C.3    28  TYR28       0.0574
     14  CG       -28.8860   60.6550    3.0800 C.ar   28  TYR28      -0.0198
     15  CD1      -28.0080   60.1350    4.0330 C.ar   28  TYR28      -0.0009
     16  CD2      -29.9810   61.3980    3.5290 C.ar   28  TYR28      -0.0009
     17  CE1      -28.2160   60.3420    5.3950 C.ar   28  TYR28       0.0417
     18  CE2      -30.1990   61.6170    4.8910 C.ar   28  TYR28       0.0417
     19  CZ       -29.3170   61.0870    5.8190 C.ar   28  TYR28       0.1957
     20  OH       -29.5340   61.2990    7.1630 O.3    28  TYR28      -0.2866
     21  N        -27.0620   60.9610   -1.3990 N.am   29  TRP29      -0.1974
     22  CA       -26.4030   60.3220   -2.5360 C.3    29  TRP29       0.1640
     23  C        -24.8990   60.5820   -2.4630 C.2    29  TRP29       0.2290
     24  O        -24.1070   59.8710   -3.0760 O.2    29  TRP29      -0.2864
     25  CB       -26.9830   60.8240   -3.8710 C.3    29  TRP29       0.0576
     26  CG       -28.2980   60.1960   -4.1900 C.ar   29  TRP29       0.0006
     27  CD1      -29.5180   60.7970   -4.1630 C.ar   29  TRP29       0.0946
     28  CD2      -28.5370   58.8130   -4.4850 C.ar   29  TRP29       0.0152
     29  NE1      -30.5090   59.8740   -4.4040 N.ar   29  TRP29      -0.2442
     30  CE2      -29.9350   58.6470   -4.6050 C.ar   29  TRP29       0.0810
     31  CE3      -27.7050   57.6970   -4.6530 C.ar   29  TRP29       0.0012
     32  CZ2      -30.5280   57.4050   -4.8830 C.ar   29  TRP29       0.0191
     33  CZ3      -28.2960   56.4540   -4.9320 C.ar   29  TRP29       0.0001
     34  CH2      -29.6960   56.3220   -5.0420 C.ar   29  TRP29       0.0015
     35  N        -22.1980   57.7580   -0.5540 N.3    32  MET32      -0.1245
     36  CA       -21.6490   56.5310   -1.1450 C.3    32  MET32       0.1570
     37  C        -20.1260   56.4240   -1.1070 C.2    32  MET32       0.2261
     38  O        -19.5860   55.3420   -0.8990 O.2    32  MET32      -0.2867
     39  CB       -22.1610   56.3410   -2.5830 C.3    32  MET32       0.0387
     40  CG       -23.6770   56.3700   -2.7310 C.3    32  MET32       0.0595
     41  SD       -24.5200   55.0820   -1.7640 S.3    32  MET32      -0.1393
     42  CE       -25.1050   56.0410   -0.3630 C.3    32  MET32       0.0692
     43  N        -18.8270   55.1180    2.0750 N.3    35  LEU35      -0.1245
     44  CA       -19.2510   53.7160    2.1030 C.3    35  LEU35       0.1561
     45  C        -18.2980   52.8430    1.2750 C.2    35  LEU35       0.2260
     46  O        -18.0430   51.6860    1.6140 O.2    35  LEU35      -0.2867
     47  CB       -20.6790   53.5920    1.5760 C.3    35  LEU35       0.0270
     48  CG       -21.7660   53.1910    2.5700 C.3    35  LEU35       0.0019
     49  CD1      -21.7070   54.0350    3.8170 C.3    35  LEU35       0.0001
     50  CD2      -23.1250   53.3110    1.9000 C.3    35  LEU35       0.0001
     51  N        -21.5620   43.8580   -1.9880 N.3    88  PHE88      -0.1241
     52  CA       -22.0200   45.1440   -1.4830 C.3    88  PHE88       0.1605
     53  C        -21.1350   46.2690   -2.0230 C.2    88  PHE88       0.2264
     54  O        -21.5990   47.3780   -2.2680 O.2    88  PHE88      -0.2867
     55  CB       -22.0540   45.1380    0.0490 C.3    88  PHE88       0.0534
     56  CG       -23.3480   44.6210    0.6200 C.ar   88  PHE88      -0.0203
     57  CD1      -24.1960   45.4690    1.3310 C.ar   88  PHE88      -0.0042
     58  CD2      -23.7490   43.3070    0.4000 C.ar   88  PHE88      -0.0042
     59  CE1      -25.4150   45.0220    1.8050 C.ar   88  PHE88      -0.0003
     60  CE2      -24.9710   42.8460    0.8700 C.ar   88  PHE88      -0.0003
     61  CZ       -25.8080   43.7060    1.5740 C.ar   88  PHE88      -0.0000
     62  N        -22.5740   46.9870   -5.4410 N.3    91  MET91      -0.1182
     63  CA       -23.8690   47.6630   -5.3720 C.3    91  MET91       0.1917
     64  C        -23.6150   49.1550   -5.1070 C.2    91  MET91       0.2634
     65  O        -24.1560   50.0220   -5.7920 O.2    91  MET91      -0.2714
     66  CB       -24.7580   47.0840   -4.2390 C.2    91  MET91       0.0083
     67  CG       -25.1800   45.5990   -4.3820 C.2    91  MET91       0.0282
     68  SD       -25.9960   44.8090   -2.8880 S.3    91  MET91      -0.1125
     69  CE       -26.8330   43.3690   -3.5940 C.3    91  MET91       0.0742
     70  N        -22.7530   49.4430   -4.1370 N.am   92  VAL92      -0.1977
     71  CA       -22.4450   50.8190   -3.7650 C.3    92  VAL92       0.1596
     72  C        -21.6780   51.5690   -4.8650 C.2    92  VAL92       0.2287
     73  O        -21.9410   52.7470   -5.1080 O.2    92  VAL92      -0.2864
     74  CB       -21.7090   50.8770   -2.3900 C.3    92  VAL92       0.0276
     75  CG1      -21.2680   52.2970   -2.0800 C.3    92  VAL92       0.0022
     76  CG2      -22.6470   50.3840   -1.2810 C.3    92  VAL92       0.0022
     77  N        -24.0700   52.6990   -7.5510 N.3    95  MET95      -0.1245
     78  CA       -24.8350   53.8420   -7.0630 C.3    95  MET95       0.1570
     79  C        -23.9830   55.1030   -7.0910 C.2    95  MET95       0.2261
     80  O        -24.4660   56.1630   -7.4680 O.2    95  MET95      -0.2867
     81  CB       -25.3830   53.5770   -5.6560 C.3    95  MET95       0.0387
     82  CG       -26.5600   52.5880   -5.6350 C.3    95  MET95       0.0595
     83  SD       -26.8540   51.8950   -3.9770 S.3    95  MET95      -0.1393
     84  CE       -27.7800   53.2220   -3.2450 C.3    95  MET95       0.0692
     85  N        -23.6320   62.5970    9.5860 N.3   228  LYS228     -0.1245
     86  CA       -24.5560   62.2360    8.5240 C.3   228  LYS228      0.1561
     87  C        -24.0270   60.9440    7.8540 C.2   228  LYS228      0.2260
     88  O        -24.8100   60.0660    7.5140 O.2   228  LYS228     -0.2867
     89  CB       -24.6920   63.3800    7.5120 C.3   228  LYS228      0.0271
     90  CG       -25.8230   63.1840    6.5130 C.3   228  LYS228      0.0035
     91  CD       -25.9970   64.3920    5.6070 C.3   228  LYS228      0.0206
     92  CE       -27.1690   64.2020    4.6590 C.3   228  LYS228      0.1093
     93  NZ       -27.2210   65.3030    3.6630 N.3   228  LYS228     -0.1314
     94  N        -24.9460   57.7190    9.7770 N.3   231  VAL231     -0.1231
     95  CA       -26.2970   57.2130    9.5400 C.3   231  VAL231      0.1692
     96  C        -26.3190   56.1260    8.4680 C.2   231  VAL231      0.2592
     97  O        -26.9340   55.0790    8.6670 O.2   231  VAL231     -0.2718
     98  CB       -27.2570   58.3630    9.1240 C.3   231  VAL231      0.0266
     99  CG1      -28.5960   57.8110    8.6600 C.3   231  VAL231      0.0020
    100  CG2      -27.4570   59.3500   10.2820 C.3   231  VAL231      0.0020
    101  N        -25.6540   56.3680    7.3350 N.am  232  THR232     -0.1953
    102  CA       -25.6270   55.3800    6.2560 C.3   232  THR232      0.1897
    103  C        -24.6520   54.2490    6.5190 C.2   232  THR232      0.2313
    104  O        -24.8220   53.1540    5.9890 O.2   232  THR232     -0.2863
    105  CB       -25.3470   56.0030    4.8600 C.3   232  THR232      0.1794
    106  OG1      -24.3100   56.9820    4.9620 O.3   232  THR232     -0.2208
    107  CG2      -26.6030   56.6440    4.2940 C.3   232  THR232      0.0378
    108  N        -26.7240   51.8170    8.5440 N.3   235  LEU235     -0.1231
    109  CA       -27.7340   51.2040    7.6880 C.3   235  LEU235      0.1693
    110  C        -27.0570   50.1920    6.7770 C.2   235  LEU235      0.2592
    111  O        -27.5710   49.1060    6.5620 O.2   235  LEU235     -0.2718
    112  CB       -28.4550   52.2580    6.8540 C.3   235  LEU235      0.0284
    113  CG       -29.5150   51.6750    5.9130 C.3   235  LEU235      0.0019
    114  CD1      -30.5250   50.8230    6.7050 C.3   235  LEU235      0.0001
    115  CD2      -30.2060   52.7960    5.1640 C.3   235  LEU235      0.0001
    116  N        -25.8780   50.5440    6.2720 N.am  236  PHE236     -0.1976
    117  CA       -25.1220   49.6480    5.4060 C.3   236  PHE236      0.1639
    118  C        -24.7250   48.3870    6.1860 C.2   236  PHE236      0.2290
    119  O        -24.8750   47.2720    5.6930 O.2   236  PHE236     -0.2864
    120  CB       -23.8810   50.3760    4.8470 C.3   236  PHE236      0.0560
    121  CG       -22.8660   49.4620    4.1880 C.ar  236  PHE236     -0.0200
    122  CD1      -22.8810   49.2570    2.8040 C.ar  236  PHE236     -0.0042
    123  CD2      -21.8810   48.8300    4.9480 C.ar  236  PHE236     -0.0042
    124  CE1      -21.9330   48.4420    2.1880 C.ar  236  PHE236     -0.0003
    125  CE2      -20.9310   48.0120    4.3480 C.ar  236  PHE236     -0.0003
    126  CZ       -20.9560   47.8180    2.9560 C.ar  236  PHE236     -0.0000
    127  N        -26.1270   47.1060    8.9000 N.3   238  LEU238     -0.1231
    128  CA       -27.3400   46.3610    9.2450 C.3   238  LEU238      0.1693
    129  C        -27.7260   45.4150    8.0970 C.2   238  LEU238      0.2591
    130  O        -27.9340   44.2070    8.2970 O.2   238  LEU238     -0.2718
    131  CB       -28.4980   47.3380    9.4930 C.3   238  LEU238      0.0284
    132  CG       -29.6940   46.9600   10.3830 C.3   238  LEU238      0.0019
    133  CD1      -30.9440   47.6760    9.9030 C.3   238  LEU238      0.0001
    134  CD2      -29.9310   45.4670   10.4270 C.3   238  LEU238      0.0001
    135  N        -27.8180   45.9680    6.8910 N.am  239  ILE239     -0.1980
    136  CA       -28.1870   45.1670    5.7300 C.3   239  ILE239      0.1595
    137  C        -27.1330   44.1010    5.4170 C.2   239  ILE239      0.2287
    138  O        -27.4730   42.9350    5.1900 O.2   239  ILE239     -0.2864
    139  CB       -28.4790   46.0660    4.5060 C.3   239  ILE239      0.0276
    140  CG1      -29.5610   47.0840    4.8820 C.3   239  ILE239      0.0022
    141  CG2      -28.9330   45.2200    3.3120 C.3   239  ILE239      0.0022
    142  CD1      -29.9520   48.0210    3.7670 C.3   239  ILE239      0.0001
    143  N        -27.6390   41.2900    7.7660 N.3   242  LEU242     -0.1231
    144  CA       -28.7840   40.4250    7.4330 C.3   242  LEU242      0.1693
    145  C        -28.3670   39.3420    6.4500 C.2   242  LEU242      0.2592
    146  O        -28.7870   38.1920    6.5720 O.2   242  LEU242     -0.2718
    147  CB       -29.9550   41.2200    6.8490 C.3   242  LEU242      0.0284
    148  CG       -30.7000   42.1520    7.8090 C.3   242  LEU242      0.0019
    149  CD1      -31.6520   43.0310    7.0230 C.3   242  LEU242      0.0001
    150  CD2      -31.4570   41.3450    8.8580 C.3   242  LEU242      0.0001
    151  N        -27.5380   39.7030    5.4730 N.am  243  PHE243     -0.1976
    152  CA       -27.0700   38.7050    4.5140 C.3   243  PHE243      0.1639
    153  C        -26.0390   37.7720    5.1320 C.2   243  PHE243      0.2290
    154  O        -26.1760   36.5670    5.0280 O.2   243  PHE243     -0.2864
    155  CB       -26.4740   39.3500    3.2510 C.3   243  PHE243      0.0560
    156  CG       -27.5050   39.8250    2.2710 C.ar  243  PHE243     -0.0200
    157  CD1      -28.1730   41.0300    2.4720 C.ar  243  PHE243     -0.0042
    158  CD2      -27.8320   39.0500    1.1610 C.ar  243  PHE243     -0.0042
    159  CE1      -29.1580   41.4550    1.5870 C.ar  243  PHE243     -0.0003
    160  CE2      -28.8090   39.4640    0.2770 C.ar  243  PHE243     -0.0003
    161  CZ       -29.4790   40.6700    0.4880 C.ar  243  PHE243     -0.0000
    162  N        -27.1250   33.5810   -0.8080 N.3   250  THR250     -0.1203
    163  CA       -28.1040   34.0400   -1.7680 C.3   250  THR250      0.1994
    164  C        -27.5190   34.7950   -2.9670 C.2   250  THR250      0.2617
    165  O        -28.0640   34.7260   -4.0700 O.2   250  THR250     -0.2717
    166  CB       -29.1580   34.8860   -1.0550 C.3   250  THR250      0.1784
    167  OG1      -29.9280   34.0220   -0.2150 O.3   250  THR250     -0.2211
    168  CG2      -30.0810   35.5920   -2.0490 C.3   250  THR250      0.0376
    169  N        -26.3930   35.4690   -2.7630 N.am  251  LEU251     -0.1979
    170  CA       -25.7530   36.2310   -3.8310 C.3   251  LEU251      0.1596
    171  C        -24.6160   35.4710   -4.5160 C.2   251  LEU251      0.2287
    172  O        -23.8300   36.0510   -5.2620 O.2   251  LEU251     -0.2864
    173  CB       -25.2330   37.5570   -3.2750 C.3   251  LEU251      0.0297
    174  CG       -26.3120   38.4940   -2.7470 C.3   251  LEU251      0.0022
    175  CD1      -25.6620   39.6790   -2.0640 C.3   251  LEU251      0.0001
    176  CD2      -27.2060   38.9370   -3.8880 C.3   251  LEU251      0.0001
@<TRIPOS>BOND
     1    77    78    1
     2    80    79    2
     3    79    78    1
     4    78    81    1
     5    65    64    2
     6    81    82    1
     7    82    83    1
     8    62    63    1
     9    63    64    1
    10    63    66    1
    11   172   171    2
    12    73    72    2
    13    64    70   am
    14    34    33   ar
    15    34    32   ar
    16    33    31   ar
    17    32    30   ar
    18    72    71    1
    19    31    28   ar
    20    30    28   ar
    21    30    29   ar
    22   171   170    1
    23    28    26   ar
    24    29    27   ar
    25    67    66    2
    26    67    68    1
    27    26    27   ar
    28    26    25    1
    29    70    71    1
    30   165   164    2
    31    83    84    1
    32   176   174    1
    33    25    22    1
    34   170   173    1
    35   170   169    1
    36    71    74    1
    37    69    68    1
    38     8     6   am
    39   173   174    1
    40    24    23    2
    41   164   169   am
    42   164   163    1
    43   174   175    1
    44    40    39    1
    45    40    41    1
    46     7     6    2
    47    39    36    1
    48    22    23    1
    49    22    21    1
    50     6     5    1
    51    74    75    1
    52    74    76    1
    53    54    53    2
    54   168   166    1
    55    53    52    1
    56    51    52    1
    57   163   166    1
    58   163   162    1
    59    41    42    1
    60    52    55    1
    61    21    11   am
    62    36    37    1
    63    36    35    1
    64    37    38    2
    65     5     2    1
    66   166   167    1
    67     1     2    1
    68     2     3    1
    69    11    12    2
    70    11    10    1
    71     4     3    2
    72    55    56    1
    73     3     9   am
    74   160   161   ar
    75   160   158   ar
    76    58    56   ar
    77    58    60   ar
    78   161   159   ar
    79    56    57   ar
    80     9    10    1
    81    60    61   ar
    82    10    13    1
    83   158   156   ar
    84    45    46    2
    85    45    44    1
    86    57    59   ar
    87    61    59   ar
    88    47    44    1
    89    47    48    1
    90   159   157   ar
    91    13    14    1
    92    50    48    1
    93    43    44    1
    94   124   122   ar
    95   124   126   ar
    96   156   157   ar
    97   156   155    1
    98    48    49    1
    99   122   121   ar
   100   126   125   ar
   101    14    16   ar
   102    14    15   ar
   103   155   152    1
   104   141   139    1
   105    16    18   ar
   106    93    92    1
   107   142   140    1
   108    15    17   ar
   109   121   120    1
   110   121   123   ar
   111   107   105    1
   112   125   123   ar
   113   139   140    1
   114   139   136    1
   115   152   153    1
   116   152   151    1
   117    92    91    1
   118   120   117    1
   119   105   106    1
   120   105   102    1
   121    18    19   ar
   122   154   153    2
   123   115   113    1
   124   138   137    2
   125    17    19   ar
   126   117   118    1
   127   117   116    1
   128   137   136    1
   129   151   145   am
   130    91    90    1
   131   119   118    2
   132   136   135    1
   133    19    20    1
   134   113   114    1
   135   113   112    1
   136   104   103    2
   137   102   103    1
   138   102   101    1
   139   116   110   am
   140   145   146    2
   141   145   144    1
   142    90    89    1
   143   111   110    2
   144   110   109    1
   145   147   144    1
   146   147   148    1
   147   112   109    1
   148   135   129   am
   149   149   148    1
   150   101    96   am
   151   144   143    1
   152    89    86    1
   153    88    87    2
   154   109   108    1
   155   148   150    1
   156    87    86    1
   157   129   130    2
   158   129   128    1
   159    96    97    2
   160    96    95    1
   161    86    85    1
   162    99    98    1
   163   127   128    1
   164    98    95    1
   165    98   100    1
   166   128   131    1
   167   131   132    1
   168    95    94    1
   169   133   132    1
   170   132   134    1
