@<TRIPOS>MOLECULE
tmp/1kb9E00.pdb
 81 78 0 0 0
SMALL
GASTEIGER

@<TRIPOS>ATOM
      1  N        -23.3070   51.5190   22.8130 N.3    36  LEU36      -0.1231
      2  CA       -23.4860   50.4180   21.8710 C.3    36  LEU36       0.1693
      3  C        -22.3460   50.2980   20.8450 C.2    36  LEU36       0.2592
      4  O        -22.0060   49.1910   20.4200 O.2    36  LEU36      -0.2718
      5  CB       -24.8570   50.5150   21.2000 C.3    36  LEU36       0.0284
      6  CG       -26.0670   50.3200   22.1310 C.3    36  LEU36       0.0019
      7  CD1      -27.3540   50.7590   21.4530 C.3    36  LEU36       0.0001
      8  CD2      -26.1600   48.8670   22.5620 C.3    36  LEU36       0.0001
      9  N        -21.7130   51.4230   20.5110 N.am   37  SER37      -0.1952
     10  CA       -20.5940   51.4170   19.5710 C.3    37  SER37       0.1924
     11  C        -19.3880   50.7480   20.1990 C.2    37  SER37       0.2314
     12  O        -18.7360   49.9120   19.5690 O.2    37  SER37      -0.2863
     13  CB       -20.2070   52.8370   19.1570 C.3    37  SER37       0.2116
     14  OG       -21.1930   53.3990   18.3210 O.3    37  SER37      -0.2180
     15  N        -19.3130   48.6170   22.6290 N.3    39  ALA39      -0.1231
     16  CA       -19.5540   47.1920   22.8010 C.3    39  ALA39       0.1694
     17  C        -19.4140   46.4910   21.4450 C.2    39  ALA39       0.2593
     18  O        -18.9030   45.3700   21.3600 O.2    39  ALA39      -0.2718
     19  CB       -20.9540   46.9490   23.4010 C.3    39  ALA39       0.0304
     20  N        -19.8690   47.1640   20.3910 N.am   40  GLY40      -0.1942
     21  CA       -19.7820   46.6100   19.0510 C.3    40  GLY40       0.2014
     22  C        -18.3360   46.4710   18.6110 C.2    40  GLY40       0.2638
     23  O        -17.9330   45.4180   18.1120 O.2    40  GLY40      -0.2714
     24  N        -17.5540   47.5270   18.8350 N.am   41  ALA41      -0.1977
     25  CA       -16.1440   47.5500   18.4840 C.3    41  ALA41       0.1597
     26  C        -15.3840   46.4650   19.2260 C.2    41  ALA41       0.2287
     27  O        -14.5220   45.7980   18.6540 O.2    41  ALA41      -0.2864
     28  CB       -15.5470   48.9060   18.8050 C.3    41  ALA41       0.0319
     29  N        -16.6170   43.6430   20.4480 N.3    43  SER43      -0.1202
     30  CA       -17.0240   42.3560   19.8860 C.3    43  SER43       0.2020
     31  C        -16.3680   42.0910   18.5320 C.2    43  SER43       0.2619
     32  O        -15.9720   40.9600   18.2510 O.2    43  SER43      -0.2717
     33  CB       -18.5470   42.2830   19.7410 C.3    43  SER43       0.2103
     34  OG       -19.1650   42.0510   20.9920 O.3    43  SER43      -0.2182
     35  N        -16.2620   43.1300   17.7040 N.am   44  THR44      -0.1938
     36  CA       -15.6450   43.0160   16.3770 C.3    44  THR44       0.2028
     37  C        -14.1660   42.6600   16.5260 C.2    44  THR44       0.2642
     38  O        -13.6720   41.7300   15.8850 O.2    44  THR44      -0.2714
     39  CB       -15.7630   44.3400   15.5660 C.3    44  THR44       0.1808
     40  OG1      -17.1420   44.6600   15.3480 O.3    44  THR44      -0.2208
     41  CG2      -15.0700   44.2100   14.2300 C.3    44  THR44       0.0379
     42  N        -13.4750   43.3910   17.3970 N.am   45  VAL45      -0.1963
     43  CA       -12.0520   43.1580   17.6640 C.3    45  VAL45       0.1727
     44  C        -11.7980   41.7400   18.1910 C.2    45  VAL45       0.2616
     45  O        -10.8820   41.0600   17.7330 O.2    45  VAL45      -0.2715
     46  CB       -11.4970   44.2160   18.6480 C.3    45  VAL45       0.0290
     47  CG1      -10.0690   43.8730   19.0710 C.3    45  VAL45       0.0023
     48  CG2      -11.5220   45.5910   17.9800 C.3    45  VAL45       0.0023
     49  N        -12.6420   41.2810   19.1110 N.am   46  GLU46      -0.1963
     50  CA       -12.5020   39.9390   19.6740 C.3    46  GLU46       0.1733
     51  C        -12.7550   38.8460   18.6350 C.2    46  GLU46       0.2617
     52  O        -12.0890   37.8050   18.6470 O.2    46  GLU46      -0.2715
     53  CB       -13.4060   39.7690   20.9040 C.3    46  GLU46       0.0429
     54  CG       -12.9090   40.6190   22.0850 C.3    46  GLU46       0.1163
     55  CD       -13.8590   40.6830   23.2830 C.2    46  GLU46       0.3649
     56  OE1      -15.0970   40.7560   23.1000 O.co2  46  GLU46      -0.2457
     57  OE2      -13.3440   40.7020   24.4230 O.co2  46  GLU46      -0.2457
     58  N        -13.6930   39.1020   17.7260 N.am   47  THR47      -0.1937
     59  CA       -14.0180   38.1630   16.6620 C.3    47  THR47       0.2028
     60  C        -12.7820   37.9100   15.8030 C.2    47  THR47       0.2642
     61  O        -12.4340   36.7640   15.5330 O.2    47  THR47      -0.2714
     62  CB       -15.1430   38.7170   15.7640 C.3    47  THR47       0.1808
     63  OG1      -16.3420   38.8410   16.5300 O.3    47  THR47      -0.2208
     64  CG2      -15.4020   37.7950   14.5790 C.3    47  THR47       0.0379
     65  N        -12.1220   38.9900   15.3900 N.am   48  PHE48      -0.1973
     66  CA       -10.9250   38.9020   14.5590 C.3    48  PHE48       0.1639
     67  C         -9.7520   38.3190   15.3180 C.2    48  PHE48       0.2290
     68  O         -9.0020   37.5000   14.7830 O.2    48  PHE48      -0.2864
     69  CB       -10.5350   40.2830   14.0030 C.3    48  PHE48       0.0560
     70  CG       -11.3930   40.7370   12.8600 C.ar   48  PHE48      -0.0200
     71  CD1      -11.0680   40.3900   11.5540 C.ar   48  PHE48      -0.0042
     72  CD2      -12.5490   41.4630   13.0880 C.ar   48  PHE48      -0.0042
     73  CE1      -11.8800   40.7530   10.5000 C.ar   48  PHE48      -0.0003
     74  CE2      -13.3770   41.8330   12.0310 C.ar   48  PHE48      -0.0003
     75  CZ       -13.0420   41.4760   10.7370 C.ar   48  PHE48      -0.0000
     76  N         -9.8080   36.3050   17.9280 N.3    50  SER50      -0.1217
     77  CA        -9.9810   34.8970   18.2140 C.3    50  SER50       0.1889
     78  C         -9.8120   33.9910   16.9930 C.2    50  SER50       0.2288
     79  O         -9.5430   32.7960   17.1550 O.2    50  SER50      -0.2866
     80  CB       -11.3060   34.6420   18.9260 C.3    50  SER50       0.2089
     81  OG       -12.3930   35.0540   18.1330 O.3    50  SER50      -0.2183
@<TRIPOS>BOND
     1    73    75   ar
     2    73    71   ar
     3    75    74   ar
     4    71    70   ar
     5    74    72   ar
     6    70    72   ar
     7    70    69    1
     8    69    66    1
     9    41    39    1
    10    66    67    1
    11    66    65    1
    12    64    62    1
    13    68    67    2
    14    40    39    1
    15    65    60   am
    16    61    60    2
    17    39    36    1
    18    62    63    1
    19    62    59    1
    20    60    59    1
    21    38    37    2
    22    36    37    1
    23    36    35    1
    24    37    42   am
    25    59    58    1
    26    78    79    2
    27    78    77    1
    28    42    43    1
    29    43    44    1
    30    43    46    1
    31    35    31   am
    32    58    51   am
    33    45    44    2
    34    76    77    1
    35    48    46    1
    36    23    22    2
    37    81    80    1
    38    44    49   am
    39    77    80    1
    40    32    31    2
    41    14    13    1
    42    25    28    1
    43    25    24    1
    44    25    26    1
    45    31    30    1
    46    22    24   am
    47    22    21    1
    48    51    52    2
    49    51    50    1
    50    46    47    1
    51    27    26    2
    52    21    20    1
    53    49    50    1
    54    13    10    1
    55    12    11    2
    56    10    11    1
    57    10     9    1
    58    50    53    1
    59    33    30    1
    60    33    34    1
    61    30    29    1
    62    20    17   am
    63     4     3    2
    64     9     3   am
    65     3     2    1
    66    53    54    1
    67     5     2    1
    68     5     6    1
    69    18    17    2
    70    17    16    1
    71     7     6    1
    72     2     1    1
    73    54    55    1
    74     6     8    1
    75    15    16    1
    76    16    19    1
    77    56    55   ar
    78    55    57   ar
