@<TRIPOS>MOLECULE
tmp/1kbcA00.pdb
 156 156 0 0 0
SMALL
GASTEIGER

@<TRIPOS>ATOM
      1  N         30.4190   17.4660   54.5530 N.3    79  ASN79      -0.1225
      2  CA        31.7350   17.9880   54.1810 C.3    79  ASN79       0.1785
      3  C         31.6620   19.1740   53.1950 C.2    79  ASN79       0.2598
      4  O         30.6910   19.9440   53.2170 O.2    79  ASN79      -0.2718
      5  CB        32.6480   16.8680   53.6890 C.3    79  ASN79       0.1169
      6  CG        32.7370   15.7420   54.6810 C.2    79  ASN79       0.2627
      7  OD1       33.1670   15.9400   55.7980 O.2    79  ASN79      -0.2716
      8  ND2       32.2760   14.5620   54.2950 N.am   79  ASN79      -0.0877
      9  N         32.6780   19.3420   52.3500 N.am   80  GLY80      -0.1942
     10  CA        32.6790   20.4880   51.4490 C.3    80  GLY80       0.2014
     11  C         32.6050   21.7620   52.2970 C.2    80  GLY80       0.2639
     12  O         33.3600   21.9190   53.2780 O.2    80  GLY80      -0.2714
     13  N         31.7290   22.6870   51.9250 N.am   81  ILE81      -0.1963
     14  CA        31.5960   23.9140   52.6930 C.3    81  ILE81       0.1727
     15  C         30.7470   23.6420   53.9630 C.2    81  ILE81       0.2616
     16  O         29.7070   22.9370   53.9270 O.2    81  ILE81      -0.2715
     17  CB        31.0740   25.1140   51.8500 C.3    81  ILE81       0.0290
     18  CG1       30.8140   26.2990   52.7710 C.3    81  ILE81       0.0022
     19  CG2       29.8370   24.7670   51.1020 C.3    81  ILE81       0.0023
     20  CD1       29.7690   27.1460   52.3070 C.3    81  ILE81       0.0001
     21  N         31.2470   24.1820   55.0790 N.am   82  LEU82      -0.1963
     22  CA        30.6500   24.0150   56.3990 C.3    82  LEU82       0.1728
     23  C         29.6530   25.0760   56.8030 C.2    82  LEU82       0.2616
     24  O         28.6720   24.7830   57.4950 O.2    82  LEU82      -0.2715
     25  CB        31.7710   24.0070   57.4320 C.3    82  LEU82       0.0311
     26  CG        32.5230   22.7430   57.8460 C.3    82  LEU82       0.0022
     27  CD1       32.2710   21.4890   56.9940 C.3    82  LEU82       0.0001
     28  CD2       33.9770   23.0770   58.0480 C.3    82  LEU82       0.0001
     29  N         29.9360   26.3150   56.4340 N.am   83  ALA83      -0.1963
     30  CA        29.0790   27.4360   56.8400 C.3    83  ALA83       0.1728
     31  C         29.4520   28.6980   56.0640 C.2    83  ALA83       0.2616
     32  O         30.5170   28.7540   55.4450 O.2    83  ALA83      -0.2715
     33  CB        29.2980   27.7020   58.3880 C.3    83  ALA83       0.0334
     34  N         28.6130   29.7260   56.1930 N.am   84  HIS84      -0.1973
     35  CA        28.8370   31.0250   55.5660 C.3    84  HIS84       0.1656
     36  C         28.1520   32.1430   56.3920 C.2    84  HIS84       0.2291
     37  O         27.2590   31.8710   57.2110 O.2    84  HIS84      -0.2864
     38  CB        28.3990   31.0510   54.0670 C.3    84  HIS84       0.0771
     39  CG        26.9440   30.7270   53.8060 C.ar   84  HIS84       0.0820
     40  ND1       26.5140   29.8900   52.8010 N.ar   84  HIS84      -0.2267
     41  CD2       25.8100   31.2310   54.3540 C.ar   84  HIS84       0.1154
     42  CE1       25.1680   29.9230   52.7670 C.ar   84  HIS84       0.1986
     43  NE2       24.6760   30.7260   53.6900 N.ar   84  HIS84      -0.2212
     44  N         33.0090   18.2320   63.0670 N.3   111  TYR111     -0.1241
     45  CA        33.4470   19.7550   62.8160 C.3   111  TYR111      0.1605
     46  C         32.9630   20.2830   64.1160 C.2   111  TYR111      0.2264
     47  O         31.7890   20.2120   64.4640 O.2   111  TYR111     -0.2867
     48  CB        32.5960   19.9980   61.5720 C.3   111  TYR111      0.0534
     49  CG        33.2520   19.3970   60.3250 C.ar  111  TYR111     -0.0201
     50  CD1       34.5950   19.6650   59.9910 C.ar  111  TYR111     -0.0009
     51  CD2       32.5460   18.4930   59.5330 C.ar  111  TYR111     -0.0009
     52  CE1       35.2120   19.0280   58.8860 C.ar  111  TYR111      0.0417
     53  CE2       33.1380   17.8620   58.4410 C.ar  111  TYR111      0.0417
     54  CZ        34.4670   18.1340   58.1210 C.ar  111  TYR111      0.1957
     55  OH        35.0030   17.5250   57.0060 O.3   111  TYR111     -0.2866
     56  N         34.7010   26.4750   66.8320 N.3   115  LEU115     -0.1231
     57  CA        35.7210   26.9870   65.9080 C.3   115  LEU115      0.1693
     58  C         35.1120   27.4930   64.5920 C.2   115  LEU115      0.2591
     59  O         35.5320   28.5110   64.0720 O.2   115  LEU115     -0.2718
     60  CB        36.7900   25.9170   65.6340 C.3   115  LEU115      0.0284
     61  CG        37.7160   25.5010   66.8050 C.3   115  LEU115      0.0019
     62  CD1       38.6310   24.3310   66.4260 C.3   115  LEU115      0.0001
     63  CD2       38.5320   26.6760   67.2660 C.3   115  LEU115      0.0001
     64  N         34.1050   26.8010   64.0810 N.am  116  VAL116     -0.1980
     65  CA        33.4370   27.2240   62.8470 C.3   116  VAL116      0.1595
     66  C         32.6580   28.5310   63.1100 C.2   116  VAL116      0.2287
     67  O         32.7660   29.4910   62.3300 O.2   116  VAL116     -0.2864
     68  CB        32.4740   26.1070   62.2960 C.3   116  VAL116      0.0276
     69  CG1       31.6570   26.6500   61.1090 C.3   116  VAL116      0.0022
     70  CG2       33.2820   24.8530   61.9000 C.3   116  VAL116      0.0022
     71  N         34.9450   31.5850   63.3450 N.3   119  HIS119     -0.1226
     72  CA        35.3510   32.0130   62.0100 C.3   119  HIS119      0.1752
     73  C         34.2170   32.8230   61.3290 C.2   119  HIS119      0.2595
     74  O         34.4600   33.9160   60.8070 O.2   119  HIS119     -0.2718
     75  CB        35.7430   30.7770   61.1730 C.3   119  HIS119      0.0759
     76  CG        36.0350   31.0900   59.7460 C.ar  119  HIS119      0.0818
     77  ND1       37.2970   31.3750   59.2680 N.ar  119  HIS119     -0.2268
     78  CD2       35.1900   31.2300   58.6920 C.ar  119  HIS119      0.1154
     79  CE1       37.1800   31.6790   57.9770 C.ar  119  HIS119      0.1986
     80  NE2       35.9180   31.5960   57.5940 N.ar  119  HIS119     -0.2212
     81  N         32.9850   32.3120   61.3560 N.am  120  GLU120     -0.1979
     82  CA        31.8490   32.9890   60.7310 C.3   120  GLU120      0.1602
     83  C         31.5970   34.3960   61.2840 C.2   120  GLU120      0.2287
     84  O         31.3360   35.3370   60.5190 O.2   120  GLU120     -0.2864
     85  CB        30.5650   32.1450   60.8240 C.3   120  GLU120      0.0415
     86  CG        30.6220   30.7660   60.1250 C.3   120  GLU120      0.1163
     87  CD        31.2740   30.7960   58.7290 C.2   120  GLU120      0.3649
     88  OE1       30.9950   31.7230   57.9500 O.co2 120  GLU120     -0.2457
     89  OE2       32.0900   29.9020   58.4270 O.co2 120  GLU120     -0.2457
     90  N         33.4210   37.2420   59.8350 N.3   123  HIS123     -0.1241
     91  CA        32.7520   37.7610   58.6320 C.3   123  HIS123      0.1621
     92  C         31.6090   38.6940   59.0380 C.2   123  HIS123      0.2264
     93  O         31.4650   39.8000   58.4700 O.2   123  HIS123     -0.2867
     94  CB        32.1690   36.6340   57.7600 C.3   123  HIS123      0.0745
     95  CG        33.2020   35.8130   57.0600 C.ar  123  HIS123      0.0817
     96  ND1       34.2920   36.3360   56.3970 N.ar  123  HIS123     -0.2268
     97  CD2       33.2760   34.4700   56.8910 C.ar  123  HIS123      0.1154
     98  CE1       34.9750   35.3210   55.8500 C.ar  123  HIS123      0.1986
     99  NE2       34.3930   34.1720   56.1260 N.ar  123  HIS123     -0.2212
    100  N         38.8940   36.7450   54.3190 N.3   129  HIS129     -0.1241
    101  CA        39.8810   35.6980   54.5800 C.3   129  HIS129      0.1621
    102  C         41.3220   36.1340   54.6790 C.2   129  HIS129      0.2264
    103  O         41.7680   37.0720   54.0080 O.2   129  HIS129     -0.2867
    104  CB        39.7510   34.5760   53.5690 C.3   129  HIS129      0.0745
    105  CG        38.4830   33.8030   53.7120 C.ar  129  HIS129      0.0817
    106  ND1       37.8390   33.1630   52.6770 N.ar  129  HIS129     -0.2268
    107  CD2       37.7570   33.5260   54.8240 C.ar  129  HIS129      0.1154
    108  CE1       36.7710   32.5200   53.1750 C.ar  129  HIS129      0.1986
    109  NE2       36.6730   32.7070   54.4830 N.ar  129  HIS129     -0.2212
    110  N         42.6020   32.5060   62.4200 N.3   136  LEU136     -0.1245
    111  CA        41.2510   31.9540   62.4900 C.3   136  LEU136      0.1561
    112  C         40.4990   32.2720   61.1730 C.2   136  LEU136      0.2260
    113  O         39.6500   31.5010   60.7360 O.2   136  LEU136     -0.2867
    114  CB        40.4590   32.5290   63.6910 C.3   136  LEU136      0.0270
    115  CG        39.0070   32.0630   63.9060 C.3   136  LEU136      0.0019
    116  CD1       38.9550   30.5630   64.1700 C.3   136  LEU136      0.0001
    117  CD2       38.3660   32.8060   65.0600 C.3   136  LEU136      0.0001
    118  N         41.6300   32.1590   58.2370 N.3   138  TYR138     -0.1228
    119  CA        42.1880   31.3570   57.1370 C.3   138  TYR138      0.1721
    120  C         40.9410   30.5670   56.6290 C.2   138  TYR138      0.2437
    121  O         40.1310   30.0900   57.4370 O.2   138  TYR138     -0.2733
    122  CB        43.3000   30.4630   57.6860 C.3   138  TYR138      0.0547
    123  CG        43.9530   29.5450   56.6940 C.ar  138  TYR138     -0.0200
    124  CD1       44.8220   30.0280   55.7030 C.ar  138  TYR138     -0.0009
    125  CD2       43.7270   28.1700   56.7690 C.ar  138  TYR138     -0.0009
    126  CE1       45.4510   29.1410   54.8030 C.ar  138  TYR138      0.0417
    127  CE2       44.3410   27.2860   55.9010 C.ar  138  TYR138      0.0417
    128  CZ        45.1990   27.7730   54.9190 C.ar  138  TYR138      0.1957
    129  OH        45.7940   26.8510   54.0910 O.3   138  TYR138     -0.2866
    130  N         40.7680   30.4260   55.2900 N.am  139  PRO139     -0.2718
    131  CA        39.6100   29.7340   54.7060 C.3   139  PRO139      0.1535
    132  C         39.3910   28.2320   54.8440 C.2   139  PRO139      0.2599
    133  O         38.3900   27.7420   54.3280 O.2   139  PRO139     -0.2715
    134  CB        39.6810   30.1480   53.2440 C.3   139  PRO139      0.0310
    135  CG        41.1060   30.1420   52.9870 C.3   139  PRO139      0.0237
    136  CD        41.7150   30.8010   54.2210 C.3   139  PRO139      0.0939
    137  N         40.2930   27.5070   55.5100 N.am  140  ASN140     -0.1959
    138  CA        40.1350   26.0600   55.6980 C.3   140  ASN140      0.1819
    139  C         39.9660   25.7230   57.1780 C.2   140  ASN140      0.2621
    140  O         40.6650   26.2890   58.0260 O.2   140  ASN140     -0.2715
    141  CB        41.3640   25.3090   55.1690 C.3   140  ASN140      0.1195
    142  CG        41.5240   25.4490   53.6500 C.2   140  ASN140      0.2630
    143  OD1       42.4850   26.0430   53.1610 O.2   140  ASN140     -0.2716
    144  ND2       40.5570   24.9510   52.9170 N.am  140  ASN140     -0.0877
    145  N         39.0280   24.8400   57.4840 N.am  141  TYR141     -0.1974
    146  CA        38.8080   24.4080   58.8570 C.3   141  TYR141      0.1639
    147  C         40.0340   23.6120   59.3670 C.2   141  TYR141      0.2290
    148  O         40.6500   22.8420   58.6210 O.2   141  TYR141     -0.2864
    149  CB        37.5560   23.5060   58.9400 C.3   141  TYR141      0.0560
    150  CG        37.3950   22.7500   60.2870 C.ar  141  TYR141     -0.0198
    151  CD1       36.6880   23.3280   61.3540 C.ar  141  TYR141     -0.0009
    152  CD2       37.9370   21.4620   60.4830 C.ar  141  TYR141     -0.0009
    153  CE1       36.5170   22.6560   62.5660 C.ar  141  TYR141      0.0417
    154  CE2       37.7740   20.7810   61.7050 C.ar  141  TYR141      0.0417
    155  CZ        37.0630   21.3900   62.7380 C.ar  141  TYR141      0.1957
    156  OH        36.9120   20.7610   63.9700 O.3   141  TYR141     -0.2866
@<TRIPOS>BOND
     1    19    17    1
     2    10    11    1
     3    10     9    1
     4    17    14    1
     5    17    18    1
     6    13    11   am
     7    13    14    1
     8    11    12    2
     9    20    18    1
    10     9     3   am
    11   106   108   ar
    12   106   105   ar
    13    14    15    1
    14    42    40   ar
    15    42    43   ar
    16    40    39   ar
    17   144   142   am
    18   135   134    1
    19   135   136    1
    20   143   142    2
    21   108   109   ar
    22     3     4    2
    23     3     2    1
    24   134   131    1
    25   104   105    1
    26   104   101    1
    27   142   141    1
    28     5     2    1
    29     5     6    1
    30    43    41   ar
    31   105   107   ar
    32    39    38    1
    33    39    41   ar
    34    16    15    2
    35    15    21   am
    36   103   102    2
    37    38    35    1
    38   129   128    1
    39     2     1    1
    40   136   130    1
    41     8     6   am
    42   100   101    1
    43   133   132    2
    44   109   107   ar
    45   101   102    1
    46     6     7    2
    47   131   132    1
    48   131   130    1
    49   126   128   ar
    50   126   124   ar
    51   132   137   am
    52   128   127   ar
    53    21    22    1
    54   141   138    1
    55   130   120   am
    56    32    31    2
    57   137   138    1
    58    35    34    1
    59    35    36    1
    60   138   139    1
    61   124   123   ar
    62    98    99   ar
    63    98    96   ar
    64   127   125   ar
    65    31    34   am
    66    31    30    1
    67    99    97   ar
    68    36    37    2
    69    96    95   ar
    70    22    23    1
    71    22    25    1
    72    29    23   am
    73    29    30    1
    74   120   119    1
    75   120   121    2
    76   123   125   ar
    77   123   122    1
    78    23    24    2
    79    30    33    1
    80    97    95   ar
    81    27    26    1
    82    55    54    1
    83    95    94    1
    84   119   122    1
    85   119   118    1
    86   139   145   am
    87   139   140    2
    88    25    26    1
    89   145   146    1
    90    80    79   ar
    91    80    78   ar
    92    94    91    1
    93    26    28    1
    94    88    87   ar
    95    79    77   ar
    96    54    53   ar
    97    54    52   ar
    98    89    87   ar
    99    53    51   ar
   100    93    92    2
   101   148   147    2
   102    91    92    1
   103    91    90    1
   104    78    76   ar
   105    87    86    1
   106   146   149    1
   107   146   147    1
   108    52    50   ar
   109   149   150    1
   110    77    76   ar
   111    51    49   ar
   112    76    75    1
   113    50    49   ar
   114    86    85    1
   115   150   152   ar
   116   150   151   ar
   117    49    48    1
   118   152   154   ar
   119    84    83    2
   120    82    85    1
   121    82    83    1
   122    82    81    1
   123   113   112    2
   124    74    73    2
   125    69    68    1
   126    75    72    1
   127   112   111    1
   128    73    81   am
   129    73    72    1
   130   151   153   ar
   131    48    45    1
   132   154   155   ar
   133    70    68    1
   134    72    71    1
   135    68    65    1
   136    67    66    2
   137   110   111    1
   138   111   114    1
   139   153   155   ar
   140   155   156    1
   141    45    44    1
   142    45    46    1
   143    65    66    1
   144    65    64    1
   145   114   115    1
   146   115   116    1
   147   115   117    1
   148    59    58    2
   149    64    58   am
   150    46    47    2
   151    58    57    1
   152    60    57    1
   153    60    61    1
   154    57    56    1
   155    62    61    1
   156    61    63    1
