@<TRIPOS>MOLECULE
tmp/1kbiA02.pdb
 90 82 0 0 0
SMALL
GASTEIGER

@<TRIPOS>ATOM
      1  N         79.0850   57.0630    7.5380 N.3   255  VAL255     -0.1245
      2  CA        80.2690   57.0240    8.3750 C.3   255  VAL255      0.1561
      3  C         79.9670   56.2340    9.6600 C.2   255  VAL255      0.2260
      4  O         78.9960   56.5180   10.3700 O.2   255  VAL255     -0.2867
      5  CB        80.7040   58.4540    8.7170 C.3   255  VAL255      0.0252
      6  CG1       81.8980   58.4380    9.6560 C.3   255  VAL255      0.0019
      7  CG2       81.0010   59.1980    7.4260 C.3   255  VAL255      0.0019
      8  N         85.6320   54.6850   12.8160 N.3   259  ARG259     -0.1245
      9  CA        86.1420   55.2770   11.5840 C.3   259  ARG259      0.1563
     10  C         87.1170   54.4210   10.7920 C.2   259  ARG259      0.2260
     11  O         87.3840   54.7080    9.6230 O.2   259  ARG259     -0.2867
     12  CB        86.7600   56.6610   11.8620 C.3   259  ARG259      0.0307
     13  CG        85.7940   57.6580   12.5060 C.3   259  ARG259      0.0489
     14  CD        84.4540   57.7570   11.7420 C.3   259  ARG259      0.2205
     15  NE        83.5310   58.7040   12.3940 N.pl3 259  ARG259     -0.0865
     16  CZ        83.7020   60.0300   12.4220 C.cat 259  ARG259      0.5346
     17  NH1       84.7590   60.5630   11.8290 N.pl3 259  ARG259      0.1354
     18  NH2       82.8180   60.8310   13.0330 N.pl3 259  ARG259      0.1354
     19  N         85.0780   52.7870    8.1530 N.3   262  THR262     -0.1203
     20  CA        84.7790   53.7340    7.0910 C.3   262  THR262      0.1994
     21  C         86.0110   53.9790    6.2120 C.2   262  THR262      0.2617
     22  O         85.9120   54.0460    4.9800 O.2   262  THR262     -0.2717
     23  CB        84.3120   55.0710    7.6530 C.3   262  THR262      0.1784
     24  OG1       83.1170   54.8660    8.4120 O.3   262  THR262     -0.2211
     25  CG2       84.0430   56.0530    6.5210 C.3   262  THR262      0.0376
     26  N         87.1720   54.1270    6.8410 N.am  263  ASP263     -0.1973
     27  CA        88.4000   54.3630    6.0810 C.3   263  ASP263      0.1709
     28  C         88.6230   53.1960    5.1120 C.2   263  ASP263      0.2293
     29  O         88.9200   53.3950    3.9420 O.2   263  ASP263     -0.2864
     30  CB        89.5940   54.5090    7.0330 C.3   263  ASP263      0.1436
     31  CG        90.8670   54.8940    6.3140 C.2   263  ASP263      0.3671
     32  OD1       90.9500   56.0280    5.8280 O.co2 263  ASP263     -0.2456
     33  OD2       91.7920   54.0630    6.2130 O.co2 263  ASP263     -0.2456
     34  N         85.9420   53.3190    2.3050 N.3   266  VAL266     -0.1245
     35  CA        86.1700   54.3470    1.3010 C.3   266  VAL266      0.1561
     36  C         87.2450   53.8770    0.3290 C.2   266  VAL266      0.2260
     37  O         87.0720   53.9830   -0.8880 O.2   266  VAL266     -0.2867
     38  CB        86.6070   55.6880    1.9200 C.3   266  VAL266      0.0252
     39  CG1       87.0420   56.6240    0.8400 C.3   266  VAL266      0.0019
     40  CG2       85.4430   56.3100    2.7150 C.3   266  VAL266      0.0019
     41  N         78.8240   62.7950   13.5370 N.3   323  LEU323     -0.1245
     42  CA        79.4480   63.3050   12.3290 C.3   323  LEU323      0.1561
     43  C         79.2910   64.8180   12.2710 C.2   323  LEU323      0.2260
     44  O         78.1850   65.3270   12.4910 O.2   323  LEU323     -0.2867
     45  CB        78.7870   62.6810   11.0970 C.3   323  LEU323      0.0270
     46  CG        79.5420   62.8580    9.7780 C.3   323  LEU323      0.0019
     47  CD1       80.8790   62.1050    9.8740 C.3   323  LEU323      0.0001
     48  CD2       78.6870   62.3670    8.6100 C.3   323  LEU323      0.0001
     49  N         84.5550   66.4680   10.1110 N.3   327  ASP327     -0.1225
     50  CA        84.7270   65.1140    9.6060 C.3   327  ASP327      0.1805
     51  C         84.7130   65.0980    8.0870 C.2   327  ASP327      0.2597
     52  O         85.4480   64.3320    7.4480 O.2   327  ASP327     -0.2718
     53  CB        83.6330   64.1920   10.1530 C.3   327  ASP327      0.1424
     54  CG        83.8240   63.8880   11.6110 C.2   327  ASP327      0.3668
     55  OD1       82.9140   64.1630   12.4170 O.co2 327  ASP327     -0.2456
     56  OD2       84.9080   63.3770   11.9620 O.co2 327  ASP327     -0.2456
     57  N         83.8770   65.9360    7.4920 N.am  328  ILE328     -0.1980
     58  CA        83.8130   65.9770    6.0400 C.3   328  ILE328      0.1595
     59  C         85.1070   66.6130    5.5340 C.2   328  ILE328      0.2287
     60  O         85.6390   66.1790    4.5160 O.2   328  ILE328     -0.2864
     61  CB        82.5700   66.7880    5.5300 C.3   328  ILE328      0.0276
     62  CG1       81.2900   66.2030    6.1170 C.3   328  ILE328      0.0022
     63  CG2       82.4840   66.7590    4.0110 C.3   328  ILE328      0.0022
     64  CD1       81.2260   64.7140    6.0680 C.3   328  ILE328      0.0001
     65  N         88.0240   66.3980    6.8400 N.3   330  GLU330     -0.1231
     66  CA        89.0160   65.3480    6.9060 C.3   330  GLU330      0.1699
     67  C         88.8230   64.3490    5.7690 C.2   330  GLU330      0.2592
     68  O         89.7930   63.9280    5.1410 O.2   330  GLU330     -0.2718
     69  CB        88.9620   64.6200    8.2510 C.3   330  GLU330      0.0402
     70  CG        89.6750   65.3600    9.3580 C.3   330  GLU330      0.1161
     71  CD        91.1030   65.7220    8.9730 C.2   330  GLU330      0.3649
     72  OE1       91.9170   64.7850    8.7250 O.co2 330  GLU330     -0.2457
     73  OE2       91.3920   66.9460    8.9100 O.co2 330  GLU330     -0.2457
     74  N         87.5770   63.9680    5.4950 N.am  331  LEU331     -0.1980
     75  CA        87.3230   63.0260    4.4170 C.3   331  LEU331      0.1596
     76  C         87.9010   63.5280    3.0860 C.2   331  LEU331      0.2287
     77  O         88.4410   62.7290    2.3160 O.2   331  LEU331     -0.2864
     78  CB        85.8240   62.7480    4.3010 C.3   331  LEU331      0.0297
     79  CG        85.3550   61.8170    3.1870 C.3   331  LEU331      0.0022
     80  CD1       85.9900   60.4230    3.3340 C.3   331  LEU331      0.0001
     81  CD2       83.8260   61.7330    3.2430 C.3   331  LEU331      0.0001
     82  N         91.3760   62.4000    2.4110 N.3   334  LYS334     -0.1245
     83  CA        91.6620   60.9770    2.2740 C.3   334  LYS334      0.1561
     84  C         91.2040   60.3750    0.9640 C.2   334  LYS334      0.2260
     85  O         91.3740   59.1830    0.7400 O.2   334  LYS334     -0.2867
     86  CB        91.0170   60.1850    3.4150 C.3   334  LYS334      0.0271
     87  CG        91.3260   60.7200    4.7960 C.3   334  LYS334      0.0035
     88  CD        92.0950   59.7200    5.6610 C.3   334  LYS334      0.0206
     89  CE        92.1620   60.2120    7.1240 C.3   334  LYS334      0.1093
     90  NZ        92.4110   59.1160    8.1340 N.3   334  LYS334     -0.1314
@<TRIPOS>BOND
     1    37    36    2
     2    36    35    1
     3    85    84    2
     4    39    38    1
     5    84    83    1
     6    35    38    1
     7    35    34    1
     8    38    40    1
     9    83    82    1
    10    83    86    1
    11    77    76    2
    12    76    75    1
    13    79    81    1
    14    79    80    1
    15    79    78    1
    16    86    87    1
    17    29    28    2
    18    63    61    1
    19    78    75    1
    20    75    74    1
    21    60    59    2
    22    87    88    1
    23    22    21    2
    24    28    27    1
    25    68    67    2
    26    74    67   am
    27    61    58    1
    28    61    62    1
    29    59    58    1
    30    88    89    1
    31    67    66    1
    32    32    31   ar
    33    58    57    1
    34    64    62    1
    35    27    26    1
    36    27    30    1
    37    21    26   am
    38    21    20    1
    39    33    31   ar
    40    31    30    1
    41    25    23    1
    42    65    66    1
    43    66    69    1
    44    20    23    1
    45    20    19    1
    46    89    90    1
    47     7     5    1
    48    52    51    2
    49    57    51   am
    50     1     2    1
    51    23    24    1
    52    51    50    1
    53    69    70    1
    54     2     5    1
    55     2     3    1
    56    48    46    1
    57     5     6    1
    58    72    71   ar
    59    73    71   ar
    60    71    70    1
    61    50    49    1
    62    50    53    1
    63    11    10    2
    64     3     4    2
    65    46    47    1
    66    46    45    1
    67    53    54    1
    68    10     9    1
    69    45    42    1
    70     9    12    1
    71     9     8    1
    72    54    56   ar
    73    54    55   ar
    74    14    15    1
    75    14    13    1
    76    17    16    1
    77    12    13    1
    78    43    42    1
    79    43    44    2
    80    42    41    1
    81    15    16    2
    82    16    18    1
