@<TRIPOS>MOLECULE
tmp/1kbiA01.pdb
 216 205 0 0 0
SMALL
GASTEIGER

@<TRIPOS>ATOM
      1  N         58.1420   48.5390    4.2470 N.3   143  TYR143     -0.1227
      2  CA        59.4810   49.0780    4.2970 C.3   143  TYR143      0.1736
      3  C         59.7770   50.0490    3.1550 C.2   143  TYR143      0.2595
      4  O         60.4230   51.0720    3.3760 O.2   143  TYR143     -0.2718
      5  CB        60.5250   47.9650    4.3390 C.3   143  TYR143      0.0548
      6  CG        61.9570   48.4880    4.3040 C.ar  143  TYR143     -0.0200
      7  CD1       62.6750   48.5470    3.1010 C.ar  143  TYR143     -0.0009
      8  CD2       62.5900   48.9420    5.4570 C.ar  143  TYR143     -0.0009
      9  CE1       63.9870   49.0480    3.0580 C.ar  143  TYR143      0.0417
     10  CE2       63.8990   49.4430    5.4200 C.ar  143  TYR143      0.0417
     11  CZ        64.5840   49.4920    4.2130 C.ar  143  TYR143      0.1957
     12  OH        65.8560   50.0150    4.1460 O.3   143  TYR143     -0.2866
     13  N         59.2790   49.7720    1.9550 N.am  144  TYR144     -0.1976
     14  CA        59.5540   50.6560    0.8430 C.3   144  TYR144      0.1639
     15  C         58.7230   51.9350    0.8210 C.2   144  TYR144      0.2290
     16  O         59.2410   53.0400    0.5950 O.2   144  TYR144     -0.2864
     17  CB        59.3400   49.9430   -0.4950 C.3   144  TYR144      0.0560
     18  CG        60.3740   48.9020   -0.8620 C.ar  144  TYR144     -0.0198
     19  CD1       60.0700   47.9010   -1.7840 C.ar  144  TYR144     -0.0009
     20  CD2       61.6420   48.8970   -0.2820 C.ar  144  TYR144     -0.0009
     21  CE1       60.9810   46.9280   -2.1090 C.ar  144  TYR144      0.0417
     22  CE2       62.5710   47.9160   -0.6150 C.ar  144  TYR144      0.0417
     23  CZ        62.2300   46.9320   -1.5300 C.ar  144  TYR144      0.1957
     24  OH        63.1280   45.9340   -1.8880 O.3   144  TYR144     -0.2866
     25  N         57.0050   63.3610    3.1850 N.3   154  HIS154     -0.1241
     26  CA        57.0680   62.4130    2.0830 C.3   154  HIS154      0.1621
     27  C         56.1070   62.8830    0.9900 C.2   154  HIS154      0.2264
     28  O         56.4810   62.9760   -0.1830 O.2   154  HIS154     -0.2867
     29  CB        56.7190   61.0080    2.6050 C.3   154  HIS154      0.0745
     30  CG        56.4100   60.0140    1.5330 C.ar  154  HIS154      0.0817
     31  ND1       57.2130   59.8330    0.4220 N.ar  154  HIS154     -0.2268
     32  CD2       55.4220   59.0890    1.4400 C.ar  154  HIS154      0.1154
     33  CE1       56.7380   58.8340   -0.3010 C.ar  154  HIS154      0.1986
     34  NE2       55.6540   58.3660    0.2950 N.ar  154  HIS154     -0.2212
     35  N         56.9690   66.4190   -0.5820 N.3   157  ASN157     -0.1240
     36  CA        58.0940   66.4040   -1.5380 C.3   157  ASN157      0.1653
     37  C         57.5490   66.4490   -2.9520 C.2   157  ASN157      0.2266
     38  O         58.0810   67.1320   -3.8410 O.2   157  ASN157     -0.2867
     39  CB        58.9380   65.1180   -1.4250 C.3   157  ASN157      0.1155
     40  CG        59.7600   65.0710   -0.1950 C.2   157  ASN157      0.2627
     41  OD1       60.0690   66.0980    0.4070 O.2   157  ASN157     -0.2716
     42  ND2       60.1610   63.8630    0.1880 N.am  157  ASN157     -0.0877
     43  N         68.6660   56.6710   -6.8190 N.3   195  SER195     -0.1202
     44  CA        69.2420   56.9780   -5.5270 C.3   195  SER195      0.2020
     45  C         69.4290   55.7300   -4.6690 C.2   195  SER195      0.2619
     46  O         68.7560   54.7120   -4.8750 O.2   195  SER195     -0.2717
     47  CB        68.3570   58.0060   -4.7980 C.3   195  SER195      0.2103
     48  OG        69.0230   58.5210   -3.6560 O.3   195  SER195     -0.2182
     49  N         70.3450   55.8280   -3.7080 N.am  196  ALA196     -0.1965
     50  CA        70.6300   54.7250   -2.7970 C.3   196  ALA196      0.1728
     51  C         69.4120   54.2960   -1.9730 C.2   196  ALA196      0.2617
     52  O         68.6720   55.1300   -1.4480 O.2   196  ALA196     -0.2715
     53  CB        71.7730   55.1090   -1.8400 C.3   196  ALA196      0.0334
     54  N         69.2200   52.9870   -1.8570 N.am  197  THR197     -0.1937
     55  CA        68.1370   52.4250   -1.0470 C.3   197  THR197      0.2028
     56  C         68.6480   51.0750   -0.5750 C.2   197  THR197      0.2642
     57  O         69.2250   50.3140   -1.3620 O.2   197  THR197     -0.2714
     58  CB        66.8450   52.1650   -1.8530 C.3   197  THR197      0.1808
     59  OG1       67.1420   51.2690   -2.9140 O.3   197  THR197     -0.2208
     60  CG2       66.2800   53.4460   -2.4410 C.3   197  THR197      0.0379
     61  N         68.4530   50.7730    0.7060 N.am  198  ALA198     -0.1977
     62  CA        68.8770   49.4940    1.2520 C.3   198  ALA198      0.1597
     63  C         67.7880   48.4650    0.9700 C.2   198  ALA198      0.2287
     64  O         66.6960   48.8160    0.5510 O.2   198  ALA198     -0.2864
     65  CB        69.0970   49.6000    2.7630 C.3   198  ALA198      0.0319
     66  N         73.8080   52.1370   -1.7300 N.3   228  SER228     -0.1217
     67  CA        73.7070   52.3010   -0.2850 C.3   228  SER228      0.1889
     68  C         74.7660   51.5220    0.4870 C.2   228  SER228      0.2288
     69  O         75.0720   50.3680    0.1690 O.2   228  SER228     -0.2866
     70  CB        72.3410   51.8230    0.2080 C.3   228  SER228      0.2089
     71  OG        72.3620   51.6500    1.6210 O.3   228  SER228     -0.2183
     72  N         74.2360   50.3610    3.0890 N.3   230  LEU230     -0.1245
     73  CA        73.4390   49.3020    3.6600 C.3   230  LEU230      0.1561
     74  C         72.7540   48.4290    2.6210 C.2   230  LEU230      0.2260
     75  O         71.7630   47.7890    2.9250 O.2   230  LEU230     -0.2867
     76  CB        72.3910   49.9040    4.6060 C.3   230  LEU230      0.0270
     77  CG        72.9480   50.8430    5.7010 C.3   230  LEU230      0.0019
     78  CD1       71.8240   51.4330    6.5340 C.3   230  LEU230      0.0001
     79  CD2       73.9220   50.0870    6.6020 C.3   230  LEU230      0.0001
     80  N         77.0560   55.6700   -1.7750 N.3   252  GLN252     -0.1245
     81  CA        76.4530   56.4440   -0.6960 C.3   252  GLN252      0.1566
     82  C         77.1180   55.9190    0.5490 C.2   252  GLN252      0.2260
     83  O         77.0560   54.7330    0.8260 O.2   252  GLN252     -0.2867
     84  CB        74.9270   56.2420   -0.6000 C.3   252  GLN252      0.0367
     85  CG        74.3000   56.9310    0.6140 C.3   252  GLN252      0.0905
     86  CD        74.2840   56.0390    1.8340 C.2   252  GLN252      0.2608
     87  OE1       73.8180   54.9060    1.7590 O.2   252  GLN252     -0.2717
     88  NE2       74.7840   56.5400    2.9710 N.am  252  GLN252     -0.0878
     89  N         77.8450   55.8790    4.7510 N.3   254  TYR254     -0.1241
     90  CA        77.3810   56.1000    6.1060 C.3   254  TYR254      0.1605
     91  C         78.6590   55.9690    6.9400 C.2   254  TYR254      0.2264
     92  O         79.2810   54.9030    7.0010 O.2   254  TYR254     -0.2867
     93  CB        76.3690   55.0400    6.5530 C.3   254  TYR254      0.0534
     94  CG        74.9330   55.4020    6.2610 C.ar  254  TYR254     -0.0201
     95  CD1       74.4100   56.6430    6.6280 C.ar  254  TYR254     -0.0009
     96  CD2       74.0780   54.4860    5.6470 C.ar  254  TYR254     -0.0009
     97  CE1       73.0650   56.9470    6.3910 C.ar  254  TYR254      0.0417
     98  CE2       72.7630   54.7790    5.4130 C.ar  254  TYR254      0.0417
     99  CZ        72.2580   55.9980    5.7820 C.ar  254  TYR254      0.1957
    100  OH        70.9440   56.2430    5.5430 O.3   254  TYR254     -0.2866
    101  N         75.6760   60.5580    3.5370 N.3   280  THR280     -0.1218
    102  CA        74.3290   60.8810    4.0210 C.3   280  THR280      0.1862
    103  C         74.3790   61.4460    5.4330 C.2   280  THR280      0.2287
    104  O         74.8930   60.8170    6.3640 O.2   280  THR280     -0.2866
    105  CB        73.4250   59.6570    3.9730 C.3   280  THR280      0.1770
    106  OG1       73.3830   59.1960    2.6290 O.3   280  THR280     -0.2211
    107  CG2       72.0180   60.0060    4.4250 C.3   280  THR280      0.0375
    108  N         74.8290   64.4550    1.2190 N.3   342  LYS342     -0.1245
    109  CA        73.4430   64.0720    0.9640 C.3   342  LYS342      0.1561
    110  C         72.5130   64.2490    2.1750 C.2   342  LYS342      0.2260
    111  O         72.7370   63.6640    3.2280 O.2   342  LYS342     -0.2867
    112  CB        73.4230   62.6230    0.4700 C.3   342  LYS342      0.0271
    113  CG        72.0480   62.0310    0.2510 C.3   342  LYS342      0.0035
    114  CD        72.1660   60.6680   -0.3920 C.3   342  LYS342      0.0206
    115  CE        70.7850   60.0550   -0.7420 C.3   342  LYS342      0.1093
    116  NZ        70.1040   59.4910    0.4480 N.3   342  LYS342     -0.1314
    117  N         67.7930   67.1100    0.1940 N.3   364  SER364     -0.1217
    118  CA        66.9900   65.9110    0.3970 C.3   364  SER364      0.1889
    119  C         66.6370   65.7290    1.8370 C.2   364  SER364      0.2288
    120  O         67.3750   66.1700    2.7270 O.2   364  SER364     -0.2866
    121  CB        67.7970   64.6890   -0.0540 C.3   364  SER364      0.2089
    122  OG        67.2240   63.4560    0.3580 O.3   364  SER364     -0.2183
    123  N         65.6960   62.5290    2.7350 N.3   366  HIS366     -0.1226
    124  CA        65.6580   61.0710    2.7580 C.3   366  HIS366      0.1752
    125  C         64.2830   60.5100    2.3040 C.2   366  HIS366      0.2596
    126  O         63.7850   59.5290    2.8480 O.2   366  HIS366     -0.2718
    127  CB        65.9550   60.6130    4.1840 C.3   366  HIS366      0.0759
    128  CG        66.7710   59.3640    4.2790 C.ar  366  HIS366      0.0818
    129  ND1       68.1180   59.3810    4.5800 N.ar  366  HIS366     -0.2268
    130  CD2       66.4210   58.0570    4.1910 C.ar  366  HIS366      0.1154
    131  CE1       68.5610   58.1400    4.6830 C.ar  366  HIS366      0.1986
    132  NE2       67.5520   57.3170    4.4540 N.ar  366  HIS366     -0.2212
    133  N         63.6750   61.1220    1.3060 N.am  367  GLY367     -0.1957
    134  CA        62.3800   60.6110    0.8710 C.3   367  GLY367      0.1869
    135  C         61.3060   60.6940    1.9560 C.2   367  GLY367      0.2309
    136  O         60.3830   59.8690    2.0090 O.2   367  GLY367     -0.2863
    137  N         61.5260   60.0050    5.0070 N.3   369  ARG369     -0.1245
    138  CA        61.6720   58.9320    5.9830 C.3   369  ARG369      0.1563
    139  C         62.4110   59.3660    7.2680 C.2   369  ARG369      0.2260
    140  O         62.6740   58.5580    8.1810 O.2   369  ARG369     -0.2867
    141  CB        62.4160   57.7730    5.3210 C.3   369  ARG369      0.0307
    142  CG        61.6780   57.1920    4.1000 C.3   369  ARG369      0.0489
    143  CD        62.5720   56.2990    3.2690 C.3   369  ARG369      0.2205
    144  NE        62.9110   55.0100    3.8720 N.pl3 369  ARG369     -0.0865
    145  CZ        62.0970   53.9500    3.8830 C.cat 369  ARG369      0.5346
    146  NH1       60.8870   54.0190    3.3440 N.pl3 369  ARG369      0.1354
    147  NH2       62.5160   52.7870    4.3640 N.pl3 369  ARG369      0.1354
    148  N         66.2270   65.2860   -4.5280 N.3   402  ASP402     -0.1225
    149  CA        65.4680   64.0600   -4.6500 C.3   402  ASP402      0.1805
    150  C         64.2390   64.1580   -3.7580 C.2   402  ASP402      0.2598
    151  O         64.1230   65.0940   -2.9440 O.2   402  ASP402     -0.2718
    152  CB        66.3240   62.8030   -4.3340 C.3   402  ASP402      0.1424
    153  CG        66.5880   62.5800   -2.8540 C.2   402  ASP402      0.3668
    154  OD1       65.9620   63.2350   -1.9840 O.co2 402  ASP402     -0.2456
    155  OD2       67.4430   61.6910   -2.5640 O.co2 402  ASP402     -0.2456
    156  N         63.3020   63.2240   -3.9580 N.am  403  GLY403     -0.1942
    157  CA        62.1040   63.1890   -3.1500 C.3   403  GLY403      0.2014
    158  C         60.8400   63.5380   -3.8760 C.2   403  GLY403      0.2639
    159  O         60.6700   64.6680   -4.3060 O.2   403  GLY403     -0.2714
    160  N         59.9650   62.5530   -4.0450 N.am  404  GLY404     -0.1939
    161  CA        58.6850   62.8060   -4.6790 C.3   404  GLY404      0.2014
    162  C         58.6610   63.0720   -6.1640 C.2   404  GLY404      0.2639
    163  O         57.6420   63.5290   -6.6910 O.2   404  GLY404     -0.2714
    164  N         59.7630   62.7770   -6.8400 N.am  405  VAL405     -0.1963
    165  CA        59.8810   62.9770   -8.2730 C.3   405  VAL405      0.1727
    166  C         59.2500   61.7610   -8.9520 C.2   405  VAL405      0.2616
    167  O         59.7130   60.6320   -8.7640 O.2   405  VAL405     -0.2715
    168  CB        61.3920   63.1110   -8.6430 C.3   405  VAL405      0.0290
    169  CG1       61.6000   63.1930  -10.1230 C.3   405  VAL405      0.0023
    170  CG2       61.9760   64.3430   -7.9660 C.3   405  VAL405      0.0023
    171  N         58.2030   61.9750   -9.7430 N.am  406  ARG406     -0.1977
    172  CA        57.5340   60.8550  -10.4210 C.3   406  ARG406      0.1597
    173  C         57.2640   61.1170  -11.9060 C.2   406  ARG406      0.2287
    174  O         56.9450   60.1880  -12.6590 O.2   406  ARG406     -0.2864
    175  CB        56.2080   60.5440   -9.7300 C.3   406  ARG406      0.0334
    176  CG        56.3000   60.3190   -8.2360 C.3   406  ARG406      0.0492
    177  CD        56.9120   58.9600   -7.8550 C.3   406  ARG406      0.2205
    178  NE        57.0690   58.8140   -6.3870 N.pl3 406  ARG406     -0.0865
    179  CZ        58.1980   59.0630   -5.7140 C.cat 406  ARG406      0.5346
    180  NH1       59.2990   59.4840   -6.3550 N.pl3 406  ARG406      0.1354
    181  NH2       58.2580   58.8470   -4.4000 N.pl3 406  ARG406      0.1354
    182  N         67.3300   62.9650   -8.2750 N.3   423  GLY423     -0.1210
    183  CA        67.2910   61.5710   -7.8700 C.3   423  GLY423      0.1956
    184  C         65.9140   60.9980   -7.6160 C.2   423  GLY423      0.2612
    185  O         64.9830   61.7260   -7.2590 O.2   423  GLY423     -0.2717
    186  N         65.7870   59.6880   -7.8160 N.am  424  LEU424     -0.1965
    187  CA        64.5420   58.9600   -7.5360 C.3   424  LEU424      0.1728
    188  C         64.8940   57.6830   -6.7780 C.2   424  LEU424      0.2617
    189  O         65.8870   57.0020   -7.0760 O.2   424  LEU424     -0.2715
    190  CB        63.7860   58.5590   -8.8190 C.3   424  LEU424      0.0311
    191  CG        63.1160   59.5720   -9.7620 C.3   424  LEU424      0.0022
    192  CD1       64.1800   60.2760  -10.6460 C.3   424  LEU424      0.0001
    193  CD2       62.0870   58.8320  -10.6470 C.3   424  LEU424      0.0001
    194  N         64.0780   57.3570   -5.7900 N.am  425  GLY425     -0.1940
    195  CA        64.2900   56.1400   -5.0300 C.3   425  GLY425      0.2014
    196  C         63.1590   55.1190   -5.2170 C.2   425  GLY425      0.2638
    197  O         63.2760   54.1710   -5.9830 O.2   425  GLY425     -0.2714
    198  N         62.0360   55.3340   -4.5460 N.am  426  ARG426     -0.1977
    199  CA        60.9170   54.4090   -4.6100 C.3   426  ARG426      0.1597
    200  C         60.4740   53.8860   -5.9750 C.2   426  ARG426      0.2287
    201  O         60.3390   52.6800   -6.1510 O.2   426  ARG426     -0.2864
    202  CB        59.7260   54.9960   -3.8470 C.3   426  ARG426      0.0334
    203  CG        59.9610   55.0570   -2.3630 C.3   426  ARG426      0.0492
    204  CD        58.7480   55.6230   -1.6730 C.3   426  ARG426      0.2205
    205  NE        58.9290   55.8480   -0.2390 N.pl3 426  ARG426     -0.0865
    206  CZ        59.4230   56.9670    0.2870 C.cat 426  ARG426      0.5346
    207  NH1       59.8100   57.9560   -0.5060 N.pl3 426  ARG426      0.1354
    208  NH2       59.4290   57.1380    1.6080 N.pl3 426  ARG426      0.1354
    209  N         62.6070   51.1090   -6.9830 N.3   429  LEU429     -0.1245
    210  CA        62.4470   49.9620   -6.1300 C.3   429  LEU429      0.1561
    211  C         61.1890   49.2330   -6.5910 C.2   429  LEU429      0.2260
    212  O         61.1720   48.0080   -6.6340 O.2   429  LEU429     -0.2867
    213  CB        62.2700   50.3550   -4.6560 C.3   429  LEU429      0.0270
    214  CG        63.4910   50.7330   -3.8030 C.3   429  LEU429      0.0019
    215  CD1       62.9870   51.4070   -2.5330 C.3   429  LEU429      0.0001
    216  CD2       64.3680   49.4920   -3.4920 C.3   429  LEU429      0.0001
@<TRIPOS>BOND
     1   174   173    2
     2   173   172    1
     3   193   191    1
     4   192   191    1
     5   172   171    1
     6   172   175    1
     7   169   168    1
     8   191   190    1
     9   171   166   am
    10   175   176    1
    11   166   167    2
    12   166   165    1
    13   190   187    1
    14   168   165    1
    15   168   170    1
    16   182   183    1
    17   165   164    1
    18   176   177    1
    19   183   184    1
    20   177   178    1
    21   186   184   am
    22   186   187    1
    23   184   185    2
    24   187   188    1
    25   189   188    2
    26   209   210    1
    27   164   162   am
    28    43    44    1
    29   188   194   am
    30   163   162    2
    31   212   211    2
    32   211   210    1
    33   178   179    2
    34   180   179    1
    35   162   161    1
    36   201   200    2
    37   210   213    1
    38   197   196    2
    39   200   199    1
    40   194   195    1
    41   179   181    1
    42    44    47    1
    43    44    45    1
    44   196   195    1
    45   196   198   am
    46    46    45    2
    47    47    48    1
    48   161   160    1
    49    45    49   am
    50   213   214    1
    51   149   148    1
    52   149   152    1
    53   149   150    1
    54   199   198    1
    55   199   202    1
    56   152   153    1
    57   159   158    2
    58   160   158   am
    59   156   150   am
    60   156   157    1
    61   158   157    1
    62   202   203    1
    63    38    37    2
    64   214   216    1
    65   214   215    1
    66   150   151    2
    67    49    50    1
    68    37    36    1
    69    59    58    1
    70   153   155   ar
    71   153   154   ar
    72    50    51    1
    73    50    53    1
    74    60    58    1
    75   203   204    1
    76    21    19   ar
    77    21    23   ar
    78    51    54   am
    79    51    52    2
    80    24    23    1
    81    54    55    1
    82    58    55    1
    83    19    18   ar
    84    80    81    1
    85    66    67    1
    86   204   205    1
    87    36    39    1
    88    36    35    1
    89    23    22   ar
    90    39    40    1
    91    57    56    2
    92    55    56    1
    93    18    17    1
    94    18    20   ar
    95   115   114    1
    96   115   116    1
    97    81    84    1
    98    81    82    1
    99    22    20   ar
   100    84    85    1
   101    56    61   am
   102   207   206    1
   103    17    14    1
   104   114   113    1
   105    33    34   ar
   106    33    31   ar
   107    67    70    1
   108    67    68    1
   109   205   206    2
   110    40    42   am
   111    40    41    2
   112    28    27    2
   113   121   122    1
   114   121   118    1
   115    69    68    2
   116   117   118    1
   117    70    71    1
   118   113   112    1
   119   206   208    1
   120    34    32   ar
   121   118   119    1
   122    31    30   ar
   123   112   109    1
   124    82    83    2
   125    64    63    2
   126    16    15    2
   127    85    86    1
   128    61    62    1
   129    15    14    1
   130    14    13    1
   131   134   133    1
   132   134   135    1
   133   109   108    1
   134   109   110    1
   135    63    62    1
   136    27    26    1
   137    62    65    1
   138   133   125   am
   139    32    30   ar
   140    30    29    1
   141    87    86    2
   142    86    88   am
   143   119   120    2
   144    13     3   am
   145   135   136    2
   146    26    29    1
   147    26    25    1
   148   110   111    2
   149   125   124    1
   150   125   126    2
   151    74    75    2
   152    74    73    1
   153   106   105    1
   154   123   124    1
   155   124   127    1
   156     9     7   ar
   157     9    11   ar
   158    72    73    1
   159     7     6   ar
   160     3     4    2
   161     3     2    1
   162   143   144    1
   163   143   142    1
   164   146   145    1
   165   101   102    1
   166    73    76    1
   167   144   145    2
   168   145   147    1
   169   105   102    1
   170   105   107    1
   171   102   103    1
   172   142   141    1
   173    12    11    1
   174   127   128    1
   175   130   128   ar
   176   130   132   ar
   177    11    10   ar
   178     1     2    1
   179   128   129   ar
   180     2     5    1
   181     6     5    1
   182     6     8   ar
   183   132   131   ar
   184   129   131   ar
   185    76    77    1
   186    89    90    1
   187   137   138    1
   188   141   138    1
   189    98    96   ar
   190    98    99   ar
   191    10     8   ar
   192   103   104    2
   193   100    99    1
   194    96    94   ar
   195    77    78    1
   196    77    79    1
   197    99    97   ar
   198   138   139    1
   199    90    93    1
   200    90    91    1
   201    94    93    1
   202    94    95   ar
   203    97    95   ar
   204    91    92    2
   205   139   140    2
