@<TRIPOS>MOLECULE
tmp/1kbqD02.pdb
 104 100 0 0 0
SMALL
GASTEIGER

@<TRIPOS>ATOM
      1  N        -20.9740  -12.3220   -0.5490 N.3    65  GLN65      -0.1245
      2  CA       -20.4820  -12.3390   -1.9160 C.3    65  GLN65       0.1566
      3  C        -19.5780  -13.5510   -2.0450 C.2    65  GLN65       0.2260
      4  O        -18.4910  -13.5960   -1.4810 O.2    65  GLN65      -0.2867
      5  CB       -19.7710  -11.0200   -2.2300 C.3    65  GLN65       0.0367
      6  CG       -20.7920   -9.8860   -2.4040 C.3    65  GLN65       0.0905
      7  CD       -20.1640   -8.5480   -2.7140 C.2    65  GLN65       0.2608
      8  OE1      -19.2800   -8.4500   -3.5670 O.2    65  GLN65      -0.2717
      9  NE2      -20.6270   -7.4990   -2.0360 N.am   65  GLN65      -0.0878
     10  N        -17.5650  -14.8930   -4.3880 N.3    67  PRO67      -0.2116
     11  CA       -16.1570  -14.8210   -4.8090 C.3    67  PRO67       0.1372
     12  C        -15.2020  -14.5050   -3.6490 C.2    67  PRO67       0.2244
     13  O        -14.2970  -15.2800   -3.3480 O.2    67  PRO67      -0.2868
     14  CB       -16.1700  -13.7230   -5.8760 C.3    67  PRO67       0.0268
     15  CG       -17.5510  -13.8490   -6.4680 C.3    67  PRO67       0.0207
     16  CD       -18.4180  -14.0420   -5.2380 C.3    67  PRO67       0.0892
     17  N        -13.3320  -24.3900   -8.9440 N.3   119  PHE119     -0.1241
     18  CA       -12.4540  -23.3740   -9.5260 C.3   119  PHE119      0.1605
     19  C        -12.5990  -22.0540   -8.7910 C.2   119  PHE119      0.2264
     20  O        -13.0750  -21.0670   -9.3410 O.2   119  PHE119     -0.2867
     21  CB       -12.7810  -23.1640  -11.0040 C.3   119  PHE119      0.0534
     22  CG       -12.2170  -24.2170  -11.9150 C.ar  119  PHE119     -0.0203
     23  CD1      -11.9190  -25.4890  -11.4400 C.ar  119  PHE119     -0.0042
     24  CD2      -12.0230  -23.9420  -13.2640 C.ar  119  PHE119     -0.0042
     25  CE1      -11.4340  -26.4780  -12.2960 C.ar  119  PHE119     -0.0003
     26  CE2      -11.5410  -24.9210  -14.1340 C.ar  119  PHE119     -0.0003
     27  CZ       -11.2460  -26.1900  -13.6520 C.ar  119  PHE119     -0.0000
     28  N         -7.3680  -19.4360  -10.2520 N.3   125  TYR125     -0.1241
     29  CA        -7.0560  -18.2310  -11.0150 C.3   125  TYR125      0.1605
     30  C         -6.8990  -16.9950  -10.1310 C.2   125  TYR125      0.2264
     31  O         -7.2950  -16.9810   -8.9670 O.2   125  TYR125     -0.2867
     32  CB        -8.1710  -17.9440  -12.0240 C.3   125  TYR125      0.0534
     33  CG        -9.4490  -17.4660  -11.3610 C.ar  125  TYR125     -0.0201
     34  CD1      -10.3560  -18.3710  -10.8000 C.ar  125  TYR125     -0.0009
     35  CD2       -9.7070  -16.1010  -11.2140 C.ar  125  TYR125     -0.0009
     36  CE1      -11.4780  -17.9260  -10.1040 C.ar  125  TYR125      0.0417
     37  CE2      -10.8230  -15.6470  -10.5180 C.ar  125  TYR125      0.0417
     38  CZ       -11.6960  -16.5630   -9.9640 C.ar  125  TYR125      0.1957
     39  OH       -12.7520  -16.1030   -9.2230 O.3   125  TYR125     -0.2866
     40  N         -6.7920  -12.4860  -10.8910 N.3   127  TYR127     -0.1241
     41  CA        -6.9630  -11.4690  -11.9060 C.3   127  TYR127      0.1605
     42  C         -5.6210  -11.0500  -12.5150 C.2   127  TYR127      0.2264
     43  O         -5.5850  -10.3790  -13.5450 O.2   127  TYR127     -0.2867
     44  CB        -7.7170  -10.2800  -11.2980 C.3   127  TYR127      0.0534
     45  CG        -9.0210  -10.6990  -10.6220 C.ar  127  TYR127     -0.0201
     46  CD1       -9.9970  -11.4240  -11.3190 C.ar  127  TYR127     -0.0009
     47  CD2       -9.2590  -10.4120   -9.2760 C.ar  127  TYR127     -0.0009
     48  CE1      -11.1730  -11.8550  -10.6950 C.ar  127  TYR127      0.0417
     49  CE2      -10.4350  -10.8390   -8.6360 C.ar  127  TYR127      0.0417
     50  CZ       -11.3850  -11.5610   -9.3500 C.ar  127  TYR127      0.1957
     51  OH       -12.5310  -11.9960   -8.7090 O.3   127  TYR127     -0.2866
     52  N         -4.0210  -14.9800  -15.1030 N.3   130  MET130     -0.1245
     53  CA        -5.1200  -15.6230  -15.8010 C.3   130  MET130      0.1570
     54  C         -4.7520  -16.0070  -17.2250 C.2   130  MET130      0.2261
     55  O         -3.7210  -15.5900  -17.7570 O.2   130  MET130     -0.2867
     56  CB        -6.3670  -14.7330  -15.7880 C.3   130  MET130      0.0387
     57  CG        -6.1390  -13.2800  -16.1390 C.3   130  MET130      0.0595
     58  SD        -7.7200  -12.3930  -16.2060 S.3   130  MET130     -0.1393
     59  CE        -7.7590  -11.9200  -17.9040 C.3   130  MET130      0.0692
     60  N        -13.2240  -19.5040  -21.8230 N.3   173  GLY173     -0.1225
     61  CA       -13.7040  -18.9430  -20.5730 C.3   173  GLY173      0.1811
     62  C        -13.4790  -19.7110  -19.2820 C.2   173  GLY173      0.2280
     63  O        -13.3440  -19.0910  -18.2350 O.2   173  GLY173     -0.2866
     64  N         -8.8540  -19.9610  -19.1810 N.3   177  PHE177     -0.1241
     65  CA        -8.8320  -18.8510  -18.2330 C.3   177  PHE177      0.1605
     66  C         -8.0040  -19.2180  -17.0020 C.2   177  PHE177      0.2264
     67  O         -7.3020  -18.3750  -16.4310 O.2   177  PHE177     -0.2867
     68  CB       -10.2680  -18.4860  -17.8230 C.3   177  PHE177      0.0534
     69  CG       -10.3520  -17.3960  -16.7950 C.ar  177  PHE177     -0.0203
     70  CD1      -10.2170  -17.6830  -15.4410 C.ar  177  PHE177     -0.0042
     71  CD2      -10.5540  -16.0780  -17.1780 C.ar  177  PHE177     -0.0042
     72  CE1      -10.2840  -16.6630  -14.4790 C.ar  177  PHE177     -0.0003
     73  CE2      -10.6210  -15.0550  -16.2230 C.ar  177  PHE177     -0.0003
     74  CZ       -10.4850  -15.3540  -14.8730 C.ar  177  PHE177     -0.0000
     75  N         -3.3290   -5.7350  -19.6740 N.3   229  LEU229     -0.1245
     76  CA        -4.0550   -6.3080  -18.5520 C.3   229  LEU229      0.1561
     77  C         -4.0900   -5.4300  -17.3020 C.2   229  LEU229      0.2260
     78  O         -3.5490   -5.7990  -16.2590 O.2   229  LEU229     -0.2867
     79  CB        -3.4660   -7.6780  -18.2080 C.3   229  LEU229      0.0270
     80  CG        -3.3090   -8.6610  -19.3740 C.3   229  LEU229      0.0019
     81  CD1       -2.7180   -9.9710  -18.8730 C.3   229  LEU229      0.0001
     82  CD2       -4.6510   -8.9000  -20.0190 C.3   229  LEU229      0.0001
     83  N         -6.8450   -2.3850  -15.2480 N.3   231  PHE231     -0.1241
     84  CA        -8.1610   -1.7510  -15.1940 C.3   231  PHE231      0.1605
     85  C         -8.2940   -0.3990  -15.9030 C.2   231  PHE231      0.2264
     86  O         -9.3960   -0.0170  -16.2970 O.2   231  PHE231     -0.2867
     87  CB        -8.6100   -1.6110  -13.7360 C.3   231  PHE231      0.0534
     88  CG        -9.0670   -2.9080  -13.1090 C.ar  231  PHE231     -0.0203
     89  CD1      -10.2530   -3.5190  -13.5200 C.ar  231  PHE231     -0.0042
     90  CD2       -8.3150   -3.5160  -12.1020 C.ar  231  PHE231     -0.0042
     91  CE1      -10.6830   -4.7150  -12.9390 C.ar  231  PHE231     -0.0003
     92  CE2       -8.7350   -4.7120  -11.5130 C.ar  231  PHE231     -0.0003
     93  CZ        -9.9220   -5.3120  -11.9320 C.ar  231  PHE231     -0.0000
     94  N         -8.3540   -3.6540  -20.0840 N.3   235  PHE235     -0.1241
     95  CA        -7.8840   -4.9390  -20.5980 C.3   235  PHE235      0.1605
     96  C         -8.0870   -5.1110  -22.0960 C.2   235  PHE235      0.2264
     97  O         -8.4440   -6.1910  -22.5650 O.2   235  PHE235     -0.2867
     98  CB        -8.5670   -6.0790  -19.8430 C.3   235  PHE235      0.0534
     99  CG        -8.4260   -5.9690  -18.3600 C.ar  235  PHE235     -0.0203
    100  CD1       -9.1640   -5.0230  -17.6520 C.ar  235  PHE235     -0.0042
    101  CD2       -7.5040   -6.7570  -17.6760 C.ar  235  PHE235     -0.0042
    102  CE1       -8.9820   -4.8580  -16.2820 C.ar  235  PHE235     -0.0003
    103  CE2       -7.3150   -6.5980  -16.3060 C.ar  235  PHE235     -0.0003
    104  CZ        -8.0550   -5.6450  -15.6060 C.ar  235  PHE235     -0.0000
@<TRIPOS>BOND
     1    97    96    2
     2    96    95    1
     3    60    61    1
     4    95    94    1
     5    95    98    1
     6    61    62    1
     7    82    80    1
     8    98    99    1
     9    75    76    1
    10    80    81    1
    11    80    79    1
    12    62    63    2
    13    64    65    1
    14    76    79    1
    15    76    77    1
    16    99   101   ar
    17    99   100   ar
    18    65    68    1
    19    65    66    1
    20    59    58    1
    21    68    69    1
    22    55    54    2
    23   101   103   ar
    24   100   102   ar
    25    77    78    2
    26    54    53    1
    27    71    69   ar
    28    71    73   ar
    29    66    67    2
    30    69    70   ar
    31   103   104   ar
    32    86    85    2
    33   102   104   ar
    34    73    74   ar
    35    58    57    1
    36    57    56    1
    37    85    84    1
    38    53    56    1
    39    53    52    1
    40    70    72   ar
    41    83    84    1
    42    84    87    1
    43    74    72   ar
    44    26    27   ar
    45    26    24   ar
    46    87    88    1
    47    27    25   ar
    48    43    42    2
    49    89    88   ar
    50    89    91   ar
    51    24    22   ar
    52    88    90   ar
    53    91    93   ar
    54    42    41    1
    55    25    23   ar
    56    90    92   ar
    57    32    33    1
    58    32    29    1
    59    93    92   ar
    60    22    23   ar
    61    22    21    1
    62    41    44    1
    63    41    40    1
    64    33    35   ar
    65    33    34   ar
    66    46    48   ar
    67    46    45   ar
    68    44    45    1
    69    35    37   ar
    70    29    28    1
    71    29    30    1
    72    21    18    1
    73    34    36   ar
    74    48    50   ar
    75    45    47   ar
    76    37    38   ar
    77    30    31    2
    78    36    38   ar
    79    38    39    1
    80    18    17    1
    81    18    19    1
    82    50    51    1
    83    50    49   ar
    84    20    19    2
    85    47    49   ar
    86    15    14    1
    87    15    16    1
    88    14    11    1
    89    16    10    1
    90    11    10    1
    91    11    12    1
    92    12    13    2
    93     8     7    2
    94     7     6    1
    95     7     9   am
    96     6     5    1
    97     5     2    1
    98     3     2    1
    99     3     4    2
   100     2     1    1
