@<TRIPOS>MOLECULE
tmp/1kc3A01.pdb
 202 199 0 0 0
SMALL
GASTEIGER

@<TRIPOS>ATOM
      1  N         11.1750  -19.8110   16.2890 N.3    65  THR65      -0.1218
      2  CA         9.7180  -20.0580   16.1850 C.3    65  THR65       0.1862
      3  C          9.2860  -20.6730   14.8380 C.2    65  THR65       0.2287
      4  O          8.1040  -20.6750   14.4720 O.2    65  THR65      -0.2866
      5  CB         8.9640  -18.7320   16.3850 C.3    65  THR65       0.1770
      6  OG1        9.4340  -17.7630   15.4390 O.3    65  THR65      -0.2211
      7  CG2        9.3110  -18.1120   17.6740 C.3    65  THR65       0.0375
      8  N          8.6360  -23.5920   13.5740 N.3    67  VAL67      -0.1245
      9  CA         8.1610  -24.8800   14.1870 C.3    67  VAL67       0.1561
     10  C          8.4920  -26.1900   13.3990 C.2    67  VAL67       0.2260
     11  O          9.0080  -27.1530   13.9800 O.2    67  VAL67      -0.2867
     12  CB         6.6060  -24.7890   14.5240 C.3    67  VAL67       0.0252
     13  CG1        6.0580  -26.0680   15.1240 C.3    67  VAL67       0.0019
     14  CG2        6.3180  -23.6760   15.4830 C.3    67  VAL67       0.0019
     15  N          4.9960  -20.9920   24.7270 N.3   104  THR104     -0.1203
     16  CA         3.9150  -21.5090   23.9060 C.3   104  THR104      0.1994
     17  C          3.0310  -22.5660   24.5000 C.2   104  THR104      0.2618
     18  O          3.4560  -23.3350   25.2780 O.2   104  THR104     -0.2717
     19  CB         4.4930  -22.1310   22.6770 C.3   104  THR104      0.1784
     20  OG1        3.4420  -22.8090   21.9580 O.3   104  THR104     -0.2211
     21  CG2        5.5520  -23.2290   23.0080 C.3   104  THR104      0.0376
     22  N          1.8230  -22.6330   23.9620 N.am  105  ASP105     -0.1959
     23  CA         0.8580  -23.7050   24.2170 C.3   105  ASP105      0.1840
     24  C          1.2350  -25.0400   23.5980 C.2   105  ASP105      0.2622
     25  O          0.6650  -26.0720   23.9320 O.2   105  ASP105     -0.2715
     26  CB        -0.4910  -23.3420   23.6380 C.3   105  ASP105      0.1450
     27  CG        -0.5580  -23.4760   22.0910 C.2   105  ASP105      0.3671
     28  OD1        0.0620  -22.6660   21.3320 O.co2 105  ASP105     -0.2456
     29  OD2       -1.2400  -24.4020   21.5830 O.co2 105  ASP105     -0.2456
     30  N          2.1670  -25.0320   22.6560 N.am  106  TYR106     -0.1974
     31  CA         2.6720  -26.2880   22.0200 C.3   106  TYR106      0.1639
     32  C          3.4200  -27.2110   23.0640 C.2   106  TYR106      0.2290
     33  O          3.6970  -28.4120   22.7960 O.2   106  TYR106     -0.2864
     34  CB         3.4450  -25.9830   20.7020 C.3   106  TYR106      0.0560
     35  CG         2.5340  -25.6930   19.4690 C.ar  106  TYR106     -0.0198
     36  CD1        1.1910  -25.2580   19.6290 C.ar  106  TYR106     -0.0009
     37  CD2        2.9990  -25.8330   18.1630 C.ar  106  TYR106     -0.0009
     38  CE1        0.3430  -24.9840   18.5500 C.ar  106  TYR106      0.0417
     39  CE2        2.1460  -25.5240   17.0530 C.ar  106  TYR106      0.0417
     40  CZ         0.8090  -25.1050   17.2670 C.ar  106  TYR106      0.1957
     41  OH        -0.1070  -24.7870   16.2780 O.3   106  TYR106     -0.2866
     42  N          9.6300  -27.8550   18.7640 N.3   128  TYR128     -0.1241
     43  CA         9.3680  -26.4350   19.1570 C.3   128  TYR128      0.1605
     44  C          8.9090  -26.2700   20.6200 C.2   128  TYR128      0.2264
     45  O          9.4760  -25.5070   21.3770 O.2   128  TYR128     -0.2867
     46  CB         8.2880  -25.7980   18.2610 C.3   128  TYR128      0.0534
     47  CG         7.8560  -24.4250   18.7370 C.ar  128  TYR128     -0.0201
     48  CD1        8.7840  -23.3690   18.8030 C.ar  128  TYR128     -0.0009
     49  CD2        6.5320  -24.1800   19.1390 C.ar  128  TYR128     -0.0009
     50  CE1        8.4090  -22.1130   19.2370 C.ar  128  TYR128      0.0417
     51  CE2        6.1490  -22.9420   19.5830 C.ar  128  TYR128      0.0417
     52  CZ         7.0910  -21.9000   19.6500 C.ar  128  TYR128      0.1957
     53  OH         6.7130  -20.6370   20.0930 O.3   128  TYR128     -0.2866
     54  N          1.5540  -18.1260   25.2530 N.3   151  THR151     -0.1203
     55  CA         0.5740  -17.6030   24.3480 C.3   151  THR151      0.1994
     56  C          0.4010  -18.5580   23.1650 C.2   151  THR151      0.2619
     57  O          1.0110  -19.6630   23.0920 O.2   151  THR151     -0.2717
     58  CB         0.9360  -16.1790   23.9560 C.3   151  THR151      0.1784
     59  OG1       -0.1680  -15.5780   23.2760 O.3   151  THR151     -0.2211
     60  CG2        2.0640  -16.0820   22.9620 C.3   151  THR151      0.0376
     61  N         -0.4740  -18.1400   22.2610 N.am  152  SER152     -0.1937
     62  CA        -0.8040  -18.9230   21.1230 C.3   152  SER152      0.2055
     63  C         -1.3830  -18.1490   19.9920 C.2   152  SER152      0.2643
     64  O         -1.9810  -17.1330   20.1780 O.2   152  SER152     -0.2714
     65  CB        -1.8680  -19.9210   21.5310 C.3   152  SER152      0.2130
     66  OG        -3.0970  -19.2380   21.6930 O.3   152  SER152     -0.2179
     67  N         -1.2340  -18.7070   18.8090 N.am  153  TRP153     -0.1959
     68  CA        -1.7820  -18.2190   17.5090 C.3   153  TRP153      0.1771
     69  C         -1.5860  -16.7090   17.4080 C.2   153  TRP153      0.2619
     70  O         -2.5500  -15.9200   17.3440 O.2   153  TRP153     -0.2715
     71  CB        -3.2310  -18.6120   17.2970 C.3   153  TRP153      0.0590
     72  CG        -3.5030  -20.1290   17.3020 C.ar  153  TRP153      0.0006
     73  CD1       -2.6720  -21.1460   17.6790 C.ar  153  TRP153      0.0946
     74  CD2       -4.7340  -20.7460   16.9480 C.ar  153  TRP153      0.0152
     75  NE1       -3.3150  -22.3500   17.5620 N.ar  153  TRP153     -0.2442
     76  CE2       -4.5870  -22.1290   17.1210 C.ar  153  TRP153      0.0810
     77  CE3       -5.9580  -20.2580   16.5020 C.ar  153  TRP153      0.0012
     78  CZ2       -5.5920  -23.0190   16.8440 C.ar  153  TRP153      0.0191
     79  CZ3       -6.9720  -21.1530   16.2480 C.ar  153  TRP153      0.0001
     80  CH2       -6.7780  -22.5130   16.4080 C.ar  153  TRP153      0.0015
     81  N         -0.2890  -16.3610   17.4450 N.am  154  VAL154     -0.1977
     82  CA         0.1470  -14.9710   17.5800 C.3   154  VAL154      0.1596
     83  C          0.2340  -14.3760   16.1970 C.2   154  VAL154      0.2287
     84  O          0.8970  -14.9490   15.2990 O.2   154  VAL154     -0.2864
     85  CB         1.4880  -14.8510   18.4360 C.3   154  VAL154      0.0276
     86  CG1        2.1050  -13.4510   18.4650 C.3   154  VAL154      0.0022
     87  CG2        1.2430  -15.2930   19.8630 C.3   154  VAL154      0.0022
     88  N          2.2430  -14.1180    9.7580 N.3   161  ASN161     -0.1225
     89  CA         1.2230  -14.8260   10.5270 C.3   161  ASN161      0.1785
     90  C          0.2420  -15.5760    9.6160 C.2   161  ASN161      0.2597
     91  O          0.2530  -15.4090    8.3840 O.2   161  ASN161     -0.2718
     92  CB         0.4470  -13.8640   11.4480 C.3   161  ASN161      0.1169
     93  CG        -0.1340  -12.6150   10.7300 C.2   161  ASN161      0.2627
     94  OD1       -1.2360  -12.6380   10.1670 O.2   161  ASN161     -0.2716
     95  ND2        0.5750  -11.5050   10.8440 N.am  161  ASN161     -0.0877
     96  N         -0.5990  -16.3820   10.2540 N.am  162  PHE162     -0.1976
     97  CA        -1.6740  -17.1260    9.5910 C.3   162  PHE162      0.1639
     98  C         -2.6200  -16.2520    8.7590 C.2   162  PHE162      0.2290
     99  O         -2.8740  -16.5650    7.6250 O.2   162  PHE162     -0.2864
    100  CB        -2.4950  -17.8960   10.6060 C.3   162  PHE162      0.0560
    101  CG        -3.6360  -18.7090   10.0170 C.ar  162  PHE162     -0.0200
    102  CD1       -3.4240  -19.9980    9.5510 C.ar  162  PHE162     -0.0042
    103  CD2       -4.9450  -18.1980   10.0030 C.ar  162  PHE162     -0.0042
    104  CE1       -4.4830  -20.7460    9.0650 C.ar  162  PHE162     -0.0003
    105  CE2       -6.0170  -18.9560    9.5080 C.ar  162  PHE162     -0.0003
    106  CZ        -5.7800  -20.2260    9.0400 C.ar  162  PHE162     -0.0000
    107  N         -0.6690  -14.9210    5.6310 N.3   165  THR165     -0.1203
    108  CA        -0.4450  -15.9630    4.6050 C.3   165  THR165      0.1994
    109  C         -1.7650  -16.4860    4.0140 C.2   165  THR165      0.2617
    110  O         -1.8260  -16.7560    2.8290 O.2   165  THR165     -0.2717
    111  CB         0.4240  -17.1230    5.1290 C.3   165  THR165      0.1784
    112  OG1       -0.1160  -17.6300    6.3580 O.3   165  THR165     -0.2211
    113  CG2        1.8090  -16.6160    5.5250 C.3   165  THR165      0.0376
    114  N         -2.8050  -16.5810    4.8410 N.am  166  MET166     -0.1979
    115  CA        -4.1500  -17.0280    4.4100 C.3   166  MET166      0.1605
    116  C         -4.8130  -16.0990    3.3930 C.2   166  MET166      0.2287
    117  O         -5.4840  -16.5430    2.4700 O.2   166  MET166     -0.2864
    118  CB        -5.1150  -17.1920    5.5990 C.3   166  MET166      0.0413
    119  CG        -5.0620  -18.5270    6.2960 C.3   166  MET166      0.0598
    120  SD        -5.1270  -19.9450    5.2290 S.3   166  MET166     -0.1393
    121  CE        -6.7070  -19.7390    4.5050 C.3   166  MET166      0.0692
    122  N         -8.3110  -24.6190    0.4910 N.3   177  SER177     -0.1202
    123  CA        -8.4090  -25.7450    1.4800 C.3   177  SER177      0.2020
    124  C         -7.5870  -25.6430    2.7690 C.2   177  SER177      0.2619
    125  O         -6.3630  -25.6340    2.6910 O.2   177  SER177     -0.2717
    126  CB        -7.9630  -27.0720    0.8360 C.3   177  SER177      0.2103
    127  OG        -6.6000  -27.0320    0.4420 O.3   177  SER177     -0.2182
    128  N         -8.2860  -25.6350    3.9300 N.am  178  VAL178     -0.1965
    129  CA        -7.7470  -25.4010    5.3680 C.3   178  VAL178      0.1727
    130  C         -8.4890  -26.1110    6.5900 C.2   178  VAL178      0.2616
    131  O         -9.6530  -26.5120    6.4750 O.2   178  VAL178     -0.2715
    132  CB        -7.6940  -23.8680    5.6970 C.3   178  VAL178      0.0290
    133  CG1       -7.2710  -23.5090    7.1660 C.3   178  VAL178      0.0023
    134  CG2       -6.7700  -23.1770    4.7610 C.3   178  VAL178      0.0023
    135  N         -7.7990  -26.2200    7.7350 N.am  179  ILE179     -0.1977
    136  CA        -8.2450  -26.9220    8.9720 C.3   179  ILE179      0.1596
    137  C         -9.3810  -26.3860    9.8680 C.2   179  ILE179      0.2287
    138  O         -9.2880  -25.2950   10.4020 O.2   179  ILE179     -0.2864
    139  CB        -7.0210  -27.1810    9.8990 C.3   179  ILE179      0.0276
    140  CG1       -5.9690  -27.9960    9.1460 C.3   179  ILE179      0.0022
    141  CG2       -7.4600  -27.8820   11.2490 C.3   179  ILE179      0.0022
    142  CD1       -4.7910  -28.4380    9.9390 C.3   179  ILE179      0.0001
    143  N         -8.6930  -28.1670   14.7550 N.3   182  GLN182     -0.1245
    144  CA        -7.7970  -27.4970   15.7550 C.3   182  GLN182      0.1566
    145  C         -8.4440  -26.2960   16.4250 C.2   182  GLN182      0.2260
    146  O         -8.5980  -25.2760   15.8090 O.2   182  GLN182     -0.2867
    147  CB        -6.4350  -27.0690   15.1780 C.3   182  GLN182      0.0367
    148  CG        -5.3960  -28.2050   15.2440 C.3   182  GLN182      0.0905
    149  CD        -4.0210  -27.7780   14.8250 C.2   182  GLN182      0.2608
    150  OE1       -3.4190  -28.4300   13.9830 O.2   182  GLN182     -0.2717
    151  NE2       -3.5120  -26.6880   15.4110 N.am  182  GLN182     -0.0878
    152  N         -8.9590  -22.7400   13.0760 N.3   223  TRP223     -0.1241
    153  CA        -8.1700  -22.1160   11.9920 C.3   223  TRP223      0.1605
    154  C         -9.0760  -21.8370   10.7630 C.2   223  TRP223      0.2264
    155  O         -8.9180  -20.8050   10.0870 O.2   223  TRP223     -0.2867
    156  CB        -6.9620  -22.9510   11.5460 C.3   223  TRP223      0.0550
    157  CG        -5.8170  -23.0470   12.5270 C.ar  223  TRP223      0.0003
    158  CD1       -5.4540  -24.1610   13.2140 C.ar  223  TRP223      0.0946
    159  CD2       -4.8540  -22.0290   12.8980 C.ar  223  TRP223      0.0152
    160  NE1       -4.3620  -23.9030   14.0130 N.ar  223  TRP223     -0.2442
    161  CE2       -3.9760  -22.6020   13.8400 C.ar  223  TRP223      0.0810
    162  CE3       -4.6690  -20.6770   12.5670 C.ar  223  TRP223      0.0012
    163  CZ2       -2.9090  -21.8840   14.4260 C.ar  223  TRP223      0.0191
    164  CZ3       -3.6160  -19.9560   13.1740 C.ar  223  TRP223      0.0001
    165  CH2       -2.7570  -20.5650   14.0890 C.ar  223  TRP223      0.0015
    166  N         -4.2930  -33.3390    5.6450 N.3   254  TYR254     -0.1228
    167  CA        -3.1190  -32.6060    5.0900 C.3   254  TYR254      0.1721
    168  C         -1.8570  -32.6040    6.0200 C.2   254  TYR254      0.2437
    169  O         -1.9040  -32.0420    7.1240 O.2   254  TYR254     -0.2733
    170  CB        -3.4900  -31.1760    4.5860 C.3   254  TYR254      0.0547
    171  CG        -4.0480  -31.2210    3.1550 C.ar  254  TYR254     -0.0200
    172  CD1       -3.2740  -31.7270    2.0810 C.ar  254  TYR254     -0.0009
    173  CD2       -5.3590  -30.8240    2.8770 C.ar  254  TYR254     -0.0009
    174  CE1       -3.7950  -31.8270    0.7690 C.ar  254  TYR254      0.0417
    175  CE2       -5.8870  -30.9150    1.5490 C.ar  254  TYR254      0.0417
    176  CZ        -5.0950  -31.4190    0.5090 C.ar  254  TYR254      0.1957
    177  OH        -5.5870  -31.5120   -0.7730 O.3   254  TYR254     -0.2866
    178  N         -0.7510  -33.2170    5.5480 N.am  255  PRO255     -0.2718
    179  CA         0.5090  -33.3140    6.2910 C.3   255  PRO255      0.1535
    180  C          1.2250  -32.0560    6.7020 C.2   255  PRO255      0.2599
    181  O          1.2790  -31.0670    5.9740 O.2   255  PRO255     -0.2715
    182  CB         1.4760  -33.9460    5.2760 C.3   255  PRO255      0.0310
    183  CG         0.7280  -34.4210    4.2170 C.3   255  PRO255      0.0237
    184  CD        -0.6170  -33.8810    4.2460 C.3   255  PRO255      0.0939
    185  N          1.8190  -32.1660    7.8740 N.am  256  THR256     -0.1951
    186  CA         2.7550  -31.1720    8.4390 C.3   256  THR256      0.1897
    187  C          3.9500  -31.9130    9.1470 C.2   256  THR256      0.2313
    188  O          3.6690  -32.8850    9.8420 O.2   256  THR256     -0.2863
    189  CB         1.9280  -30.2720    9.3610 C.3   256  THR256      0.1794
    190  OG1        2.7750  -29.5030   10.2180 O.3   256  THR256     -0.2208
    191  CG2        1.0340  -31.0910   10.3370 C.3   256  THR256      0.0378
    192  N          1.0940  -30.9940   15.2930 N.3   260  ARG260     -0.1245
    193  CA         0.3710  -29.8760   15.9130 C.3   260  ARG260      0.1563
    194  C         -0.5820  -30.4250   16.9810 C.2   260  ARG260      0.2260
    195  O         -1.1150  -31.5210   16.8130 O.2   260  ARG260     -0.2867
    196  CB        -0.4430  -29.0650   14.8870 C.3   260  ARG260      0.0307
    197  CG         0.3770  -28.3860   13.7490 C.3   260  ARG260      0.0489
    198  CD         0.6910  -26.8860   13.9250 C.3   260  ARG260      0.2205
    199  NE         1.5970  -26.4130   12.8630 N.pl3 260  ARG260     -0.0865
    200  CZ         2.9040  -26.7150   12.7520 C.cat 260  ARG260      0.5346
    201  NH1        3.5270  -27.4840   13.6450 N.pl3 260  ARG260      0.1354
    202  NH2        3.6020  -26.2420   11.7320 N.pl3 260  ARG260      0.1354
@<TRIPOS>BOND
     1   177   176    1
     2   127   126    1
     3   122   123    1
     4   176   174   ar
     5   176   175   ar
     6   174   172   ar
     7   126   123    1
     8   123   124    1
     9   175   173   ar
    10   172   171   ar
    11   117   116    2
    12   125   124    2
    13   124   128   am
    14   110   109    2
    15   173   171   ar
    16   171   170    1
    17   116   115    1
    18   128   129    1
    19   109   108    1
    20   109   114   am
    21   183   184    1
    22   183   182    1
    23   184   178    1
    24   115   114    1
    25   115   118    1
    26   121   120    1
    27   170   167    1
    28   108   111    1
    29   108   107    1
    30   134   132    1
    31   167   166    1
    32   167   168    1
    33   111   113    1
    34   111   112    1
    35   120   119    1
    36   182   179    1
    37   129   132    1
    38   129   130    1
    39   178   168   am
    40   178   179    1
    41   118   119    1
    42   132   133    1
    43   181   180    2
    44   168   169    2
    45   179   180    1
    46   131   130    2
    47   130   135   am
    48   180   185   am
    49    99    98    2
    50   135   136    1
    51   185   186    1
    52    91    90    2
    53   186   187    1
    54   186   189    1
    55    98    97    1
    56   136   137    1
    57   136   139    1
    58   106   104   ar
    59   106   105   ar
    60   104   102   ar
    61   140   139    1
    62   140   142    1
    63   187   188    2
    64   189   190    1
    65   189   191    1
    66   105   103   ar
    67   102   101   ar
    68    97    96    1
    69    97   100    1
    70    90    96   am
    71    90    89    1
    72    88    89    1
    73   137   138    2
    74   139   141    1
    75   103   101   ar
    76   101   100    1
    77   155   154    2
    78    94    93    2
    79    89    92    1
    80    93    95   am
    81    93    92    1
    82   154   153    1
    83   156   153    1
    84   156   157    1
    85   202   200    1
    86   153   152    1
    87   157   159   ar
    88   157   158   ar
    89   162   159   ar
    90   162   164   ar
    91   200   199    2
    92   200   201    1
    93   199   198    1
    94   159   161   ar
    95   164   165   ar
    96   158   160   ar
    97    10    11    2
    98    10     9    1
    99     8     9    1
   100   197   198    1
   101   197   196    1
   102   161   160   ar
   103   161   163   ar
   104   150   149    2
   105   165   163   ar
   106     9    12    1
   107     4     3    2
   108    12    13    1
   109    12    14    1
   110   143   144    1
   111   149   148    1
   112   149   151   am
   113     3     2    1
   114   196   193    1
   115   147   148    1
   116   147   144    1
   117   192   193    1
   118    84    83    2
   119     6     5    1
   120   144   145    1
   121   146   145    2
   122   193   194    1
   123     2     1    1
   124     2     5    1
   125    83    82    1
   126    79    80   ar
   127    79    77   ar
   128    41    40    1
   129     5     7    1
   130    80    78   ar
   131    77    74   ar
   132   195   194    2
   133    78    76   ar
   134    74    76   ar
   135    74    72   ar
   136    39    40   ar
   137    39    37   ar
   138    76    75   ar
   139    40    38   ar
   140    71    72    1
   141    71    68    1
   142    72    73   ar
   143    70    69    2
   144    69    81   am
   145    69    68    1
   146    81    82    1
   147    68    67    1
   148    75    73   ar
   149    82    85    1
   150    37    35   ar
   151    46    47    1
   152    46    43    1
   153    85    86    1
   154    85    87    1
   155    38    36   ar
   156    47    48   ar
   157    47    49   ar
   158    42    43    1
   159    48    50   ar
   160    67    63   am
   161    49    51   ar
   162    43    44    1
   163    50    52   ar
   164    35    36   ar
   165    35    34    1
   166    51    52   ar
   167    52    53    1
   168    63    64    2
   169    63    62    1
   170    44    45    2
   171    34    31    1
   172    62    65    1
   173    62    61    1
   174    28    27   ar
   175    65    66    1
   176    29    27   ar
   177    20    19    1
   178    31    30    1
   179    31    32    1
   180    27    26    1
   181    61    56   am
   182    30    24   am
   183    19    21    1
   184    19    16    1
   185    33    32    2
   186    60    58    1
   187    57    56    2
   188    56    55    1
   189    59    58    1
   190    24    25    2
   191    24    23    1
   192    26    23    1
   193    16    17    1
   194    16    15    1
   195    58    55    1
   196    22    23    1
   197    22    17   am
   198    55    54    1
   199    17    18    2
