@<TRIPOS>MOLECULE
tmp/1kc5B00.pdb
 120 118 0 0 0
SMALL
GASTEIGER

@<TRIPOS>ATOM
      1  N        -16.5350   10.3030   -3.9920 N.3    32  ASP32      -0.1225
      2  CA       -17.4250    9.2690   -3.4670 C.3    32  ASP32       0.1805
      3  C        -16.9820    8.8290   -2.0730 C.2    32  ASP32       0.2598
      4  O        -15.9430    9.2730   -1.5770 O.2    32  ASP32      -0.2718
      5  CB       -17.4690    8.0630   -4.4230 C.3    32  ASP32       0.1424
      6  CG       -18.6280    7.1090   -4.1240 C.2    32  ASP32       0.3668
      7  OD1      -19.7540    7.5840   -3.8460 O.co2  32  ASP32      -0.2456
      8  OD2      -18.4150    5.8760   -4.1860 O.co2  32  ASP32      -0.2456
      9  N        -17.7870    7.9780   -1.4330 N.am   33  TYR33      -0.1962
     10  CA       -17.4650    7.4710   -0.1030 C.3    33  TYR33       0.1771
     11  C        -17.7270    8.4460    1.0330 C.2    33  TYR33       0.2619
     12  O        -17.7850    9.6580    0.8300 O.2    33  TYR33      -0.2715
     13  CB       -15.9900    7.0590   -0.0450 C.3    33  TYR33       0.0574
     14  CG       -15.6470    5.9160   -0.9570 C.ar   33  TYR33      -0.0198
     15  CD1      -16.0100    4.6100   -0.6280 C.ar   33  TYR33      -0.0009
     16  CD2      -14.9670    6.1350   -2.1600 C.ar   33  TYR33      -0.0009
     17  CE1      -15.7050    3.5420   -1.4740 C.ar   33  TYR33       0.0417
     18  CE2      -14.6610    5.0720   -3.0150 C.ar   33  TYR33       0.0417
     19  CZ       -15.0340    3.7810   -2.6610 C.ar   33  TYR33       0.1957
     20  OH       -14.7490    2.7330   -3.4900 O.3    33  TYR33      -0.2866
     21  N        -17.8720    7.8870    2.2330 N.am   34  ALA34      -0.1977
     22  CA       -18.0800    8.6610    3.4470 C.3    34  ALA34       0.1597
     23  C        -16.7120    8.7760    4.1120 C.2    34  ALA34       0.2287
     24  O        -15.9840    7.7930    4.1970 O.2    34  ALA34      -0.2864
     25  CB       -19.0470    7.9340    4.3660 C.3    34  ALA34       0.0319
     26  N        -14.8150    9.2670    7.4380 N.3    36  ASN36      -0.1240
     27  CA       -15.0610    9.2380    8.8580 C.3    36  ASN36       0.1653
     28  C        -13.9200    9.6080    9.7220 C.2    36  ASN36       0.2266
     29  O        -12.7990    9.8510    9.2840 O.2    36  ASN36      -0.2867
     30  CB       -15.4530    7.8710    9.3200 C.3    36  ASN36       0.1155
     31  CG       -16.5320    7.3360    8.4410 C.2    36  ASN36       0.2627
     32  OD1      -17.5560    6.8370    8.9360 O.2    36  ASN36      -0.2716
     33  ND2      -16.3380    7.4130    7.1290 N.am   36  ASN36      -0.0877
     34  N        -16.7430    4.8020   16.6700 N.3    48  TRP48      -0.1241
     35  CA       -17.0570    5.6870   15.5580 C.3    48  TRP48       0.1605
     36  C        -17.5250    7.0400   16.0930 C.2    48  TRP48       0.2264
     37  O        -18.2910    7.1140   17.0610 O.2    48  TRP48      -0.2867
     38  CB       -18.1370    5.0740   14.6700 C.3    48  TRP48       0.0550
     39  CG       -18.5910    6.0200   13.6170 C.ar   48  TRP48       0.0003
     40  CD1      -17.8780    6.4610   12.5330 C.ar   48  TRP48       0.0946
     41  CD2      -19.8360    6.7140   13.5860 C.ar   48  TRP48       0.0152
     42  NE1      -18.6050    7.3910   11.8320 N.ar   48  TRP48      -0.2442
     43  CE2      -19.8140    7.5670   12.4580 C.ar   48  TRP48       0.0810
     44  CE3      -20.9750    6.7040   14.4090 C.ar   48  TRP48       0.0012
     45  CZ2      -20.8900    8.4030   12.1310 C.ar   48  TRP48       0.0191
     46  CZ3      -22.0420    7.5340   14.0850 C.ar   48  TRP48       0.0001
     47  CH2      -21.9900    8.3720   12.9550 C.ar   48  TRP48       0.0015
     48  N        -18.8240   11.3010   10.3000 N.3    51  TYR51      -0.1241
     49  CA       -18.2780   11.2820    8.9500 C.3    51  TYR51       0.1605
     50  C        -18.9090   12.3980    8.1190 C.2    51  TYR51       0.2264
     51  O        -19.9210   12.9930    8.5130 O.2    51  TYR51      -0.2867
     52  CB       -18.5270    9.9250    8.2640 C.3    51  TYR51       0.0534
     53  CG       -19.9740    9.6490    7.8620 C.ar   51  TYR51      -0.0201
     54  CD1      -20.6920   10.5600    7.0790 C.ar   51  TYR51      -0.0009
     55  CD2      -20.6260    8.4820    8.2660 C.ar   51  TYR51      -0.0009
     56  CE1      -22.0130   10.3250    6.7160 C.ar   51  TYR51       0.0417
     57  CE2      -21.9530    8.2380    7.9040 C.ar   51  TYR51       0.0417
     58  CZ       -22.6350    9.1710    7.1310 C.ar   51  TYR51       0.1957
     59  OH       -23.9440    8.9750    6.7860 O.3    51  TYR51      -0.2866
     60  N        -20.0560   12.7670    4.1850 N.3    53  SER53      -0.1202
     61  CA       -20.1660   12.0930    2.8960 C.3    53  SER53       0.2020
     62  C        -19.4830   12.9320    1.8350 C.2    53  SER53       0.2618
     63  O        -19.1260   14.0850    2.0800 O.2    53  SER53      -0.2717
     64  CB       -21.6250   11.9060    2.4960 C.3    53  SER53       0.2103
     65  OG       -22.1280   13.0930    1.9150 O.3    53  SER53      -0.2182
     66  N        -19.3090   12.3530    0.6540 N.am   54  TYR54      -0.1975
     67  CA       -18.6810   13.0530   -0.4550 C.3    54  TYR54       0.1639
     68  C        -19.6100   14.1850   -0.9010 C.2    54  TYR54       0.2290
     69  O        -19.1590   15.2430   -1.3410 O.2    54  TYR54      -0.2864
     70  CB       -18.4570   12.0870   -1.6110 C.3    54  TYR54       0.0560
     71  CG       -19.7450   11.6690   -2.2520 C.ar   54  TYR54      -0.0198
     72  CD1      -20.2460   12.3530   -3.3600 C.ar   54  TYR54      -0.0009
     73  CD2      -20.5130   10.6390   -1.7040 C.ar   54  TYR54      -0.0009
     74  CE1      -21.4870   12.0300   -3.9090 C.ar   54  TYR54       0.0417
     75  CE2      -21.7600   10.3060   -2.2390 C.ar   54  TYR54       0.0417
     76  CZ       -22.2410   11.0070   -3.3400 C.ar   54  TYR54       0.1957
     77  OH       -23.4790   10.7020   -3.8550 O.3    54  TYR54      -0.2866
     78  N        -23.1940   15.6080    3.2700 N.3    57  SER57      -0.1217
     79  CA       -23.9620   15.2200    4.4510 C.3    57  SER57       0.1889
     80  C        -23.0330   14.9030    5.6200 C.2    57  SER57       0.2288
     81  O        -21.9180   14.4160    5.4240 O.2    57  SER57      -0.2866
     82  CB       -24.8110   13.9870    4.1390 C.3    57  SER57       0.2089
     83  OG       -25.2200   13.9950    2.7870 O.3    57  SER57      -0.2183
     84  N        -22.8920   13.1510    9.6940 N.3    59  THR59      -0.1218
     85  CA       -23.5510   12.3020   10.6740 C.3    59  THR59       0.1862
     86  C        -22.6330   12.1300   11.8680 C.2    59  THR59       0.2287
     87  O        -21.4300   11.9200   11.7110 O.2    59  THR59      -0.2866
     88  CB       -23.9000   10.9400   10.0860 C.3    59  THR59       0.1770
     89  OG1      -25.2260   10.9920    9.5600 O.3    59  THR59      -0.2211
     90  CG2      -23.8480    9.8730   11.1310 C.3    59  THR59       0.0375
     91  N        -15.0410    5.1670    4.5210 N.3    99  GLY99      -0.1210
     92  CA       -15.9960    4.0840    4.6150 C.3    99  GLY99       0.1956
     93  C        -16.8020    3.9250    3.3400 C.2    99  GLY99       0.2612
     94  O        -17.1970    4.9030    2.7100 O.2    99  GLY99      -0.2717
     95  N        -17.0230    2.7060    2.9570 N.am  100  GLY100     -0.1942
     96  CA       -17.7990    2.3470    1.8040 C.3   100  GLY100      0.2014
     97  C        -18.2920    0.9520    2.0750 C.2   100  GLY100      0.2640
     98  O        -19.4220    0.7610    2.4900 O.2   100  GLY100     -0.2714
     99  N        -17.4230   -0.0220    1.8320 N.am  101  THR101     -0.1936
    100  CA       -17.6720   -1.4200    2.1390 C.3   101  THR101      0.2028
    101  C        -16.9330   -1.5980    3.4480 C.2   101  THR101      0.2643
    102  O        -15.8070   -2.1200    3.4530 O.2   101  THR101     -0.2714
    103  CB       -17.1240   -2.3550    1.0650 C.3   101  THR101      0.1808
    104  OG1      -15.7570   -2.0370    0.7900 O.3   101  THR101     -0.2208
    105  CG2      -17.9360   -2.2290   -0.2050 C.3   101  THR101      0.0379
    106  N        -17.5350   -1.1700    4.5550 N.am  102  GLY102     -0.1939
    107  CA       -16.8580   -1.2420    5.8330 C.3   102  GLY102      0.2014
    108  C        -15.8130   -0.1440    5.7860 C.2   102  GLY102      0.2638
    109  O        -15.8520    0.6860    4.8810 O.2   102  GLY102     -0.2714
    110  N        -14.8710   -0.1260    6.7280 N.am  103  PHE103     -0.1973
    111  CA       -13.8410    0.9090    6.7160 C.3   103  PHE103      0.1639
    112  C        -12.5640    0.5640    5.9420 C.2   103  PHE103      0.2290
    113  O        -11.5790    0.0640    6.4790 O.2   103  PHE103     -0.2864
    114  CB       -13.5210    1.3640    8.1380 C.3   103  PHE103      0.0560
    115  CG       -14.6550    2.1140    8.7870 C.ar  103  PHE103     -0.0200
    116  CD1      -15.4890    1.4950    9.7090 C.ar  103  PHE103     -0.0042
    117  CD2      -14.9340    3.4310    8.4170 C.ar  103  PHE103     -0.0042
    118  CE1      -16.5840    2.1770   10.2530 C.ar  103  PHE103     -0.0003
    119  CE2      -16.0280    4.1220    8.9580 C.ar  103  PHE103     -0.0003
    120  CZ       -16.8510    3.4910    9.8730 C.ar  103  PHE103     -0.0000
@<TRIPOS>BOND
     1     5     6    1
     2     5     2    1
     3     8     6   ar
     4     6     7   ar
     5     1     2    1
     6    74    72   ar
     7    74    76   ar
     8    77    76    1
     9    20    19    1
    10     2     3    1
    11    72    71   ar
    12    76    75   ar
    13    18    19   ar
    14    18    16   ar
    15    19    17   ar
    16    71    73   ar
    17    71    70    1
    18    75    73   ar
    19    16    14   ar
    20     3     4    2
    21     3     9   am
    22    70    67    1
    23    17    15   ar
    24     9    10    1
    25    69    68    2
    26    14    15   ar
    27    14    13    1
    28    68    67    1
    29    67    66    1
    30   105   103    1
    31    10    13    1
    32    10    11    1
    33    66    62   am
    34   104   103    1
    35    12    11    2
    36    11    21   am
    37   103   100    1
    38    96    97    1
    39    96    95    1
    40    99    97   am
    41    99   100    1
    42    62    63    2
    43    62    61    1
    44    65    64    1
    45    97    98    2
    46   100   101    1
    47    21    22    1
    48    64    61    1
    49    94    93    2
    50    83    82    1
    51    61    60    1
    52    95    93   am
    53    78    79    1
    54    93    92    1
    55    22    23    1
    56    22    25    1
    57   101   102    2
    58   101   106   am
    59    23    24    2
    60    82    79    1
    61    79    80    1
    62    91    92    1
    63   106   107    1
    64   109   108    2
    65    81    80    2
    66   108   107    1
    67   108   110   am
    68   112   113    2
    69   112   111    1
    70   111   110    1
    71   111   114    1
    72    56    54   ar
    73    56    58   ar
    74    59    58    1
    75    54    53   ar
    76    33    31   am
    77    58    57   ar
    78    26    27    1
    79    53    52    1
    80    53    55   ar
    81    57    55   ar
    82    50    51    2
    83    50    49    1
    84   114   115    1
    85    52    49    1
    86   117   115   ar
    87   117   119   ar
    88    31    32    2
    89    31    30    1
    90   115   116   ar
    91    27    30    1
    92    27    28    1
    93    49    48    1
    94   119   120   ar
    95    29    28    2
    96    89    88    1
    97    84    85    1
    98   116   118   ar
    99   120   118   ar
   100    88    85    1
   101    88    90    1
   102    85    86    1
   103    87    86    2
   104    42    43   ar
   105    42    40   ar
   106    45    43   ar
   107    45    47   ar
   108    43    41   ar
   109    40    39   ar
   110    47    46   ar
   111    41    39   ar
   112    41    44   ar
   113    39    38    1
   114    46    44   ar
   115    38    35    1
   116    35    36    1
   117    35    34    1
   118    36    37    2
