@<TRIPOS>MOLECULE
tmp/1kc7A00.pdb
 92 84 0 0 0
SMALL
GASTEIGER

@<TRIPOS>ATOM
      1  N         20.1320   10.1930   10.5200 N.3   558  LEU558     -0.1245
      2  CA        19.2220    9.0670   10.5870 C.3   558  LEU558      0.1561
      3  C         19.9730    7.8190   11.0030 C.2   558  LEU558      0.2260
      4  O         20.8150    7.3360   10.2640 O.2   558  LEU558     -0.2867
      5  CB        18.4840    8.7940    9.2770 C.3   558  LEU558      0.0270
      6  CG        17.8440    7.3750    9.0730 C.3   558  LEU558      0.0019
      7  CD1       16.6210    7.1680   10.0080 C.3   558  LEU558      0.0001
      8  CD2       17.3640    7.2440    7.6310 C.3   558  LEU558      0.0001
      9  N         18.7290    4.2640   11.8100 N.3   560  ARG560     -0.1245
     10  CA        17.5620    3.4120   11.8570 C.3   560  ARG560      0.1563
     11  C         17.7130    2.4910   13.0370 C.2   560  ARG560      0.2260
     12  O         18.8130    2.1650   13.4140 O.2   560  ARG560     -0.2867
     13  CB        17.4520    2.5820   10.5850 C.3   560  ARG560      0.0307
     14  CG        17.6240    3.3870    9.3670 C.3   560  ARG560      0.0489
     15  CD        17.1280    2.6010    8.1640 C.3   560  ARG560      0.2205
     16  NE        17.1600    3.4560    6.9760 N.pl3 560  ARG560     -0.0865
     17  CZ        18.2690    3.8340    6.3480 C.cat 560  ARG560      0.5346
     18  NH1       18.1950    4.6190    5.2830 N.pl3 560  ARG560      0.1354
     19  NH2       19.4520    3.4100    6.7690 N.pl3 560  ARG560      0.1354
     20  N         15.8840    7.3130   14.8920 N.3   616  ARG616     -0.1245
     21  CA        14.5780    6.9870   14.4550 C.3   616  ARG616      0.1563
     22  C         13.9230    5.8340   15.1160 C.2   616  ARG616      0.2260
     23  O         14.4280    4.6820   15.0550 O.2   616  ARG616     -0.2867
     24  CB        14.5950    6.7740   12.9560 C.3   616  ARG616      0.0307
     25  CG        13.1860    6.7650   12.3740 C.3   616  ARG616      0.0489
     26  CD        12.9940    5.5030   11.6950 C.3   616  ARG616      0.2205
     27  NE        13.1350    5.7040   10.3010 N.pl3 616  ARG616     -0.0865
     28  CZ        13.4240    4.7730    9.4080 C.cat 616  ARG616      0.5346
     29  NH1       13.6430    3.5000    9.7470 N.pl3 616  ARG616      0.1354
     30  NH2       13.4500    5.1440    8.1340 N.pl3 616  ARG616      0.1354
     31  N         10.2380    1.7500   12.7710 N.3   619  ASP619     -0.1239
     32  CA         9.4680    2.0520   11.5740 C.3   619  ASP619      0.1674
     33  C          8.5050    1.0140   10.9630 C.2   619  ASP619      0.2266
     34  O          7.4070    1.3570   10.5550 O.2   619  ASP619     -0.2867
     35  CB        10.4550    2.4800   10.4780 C.3   619  ASP619      0.1410
     36  CG         9.7720    2.9710    9.1940 C.2   619  ASP619      0.3668
     37  OD1        9.4270    4.1610    9.1260 O.co2 619  ASP619     -0.2456
     38  OD2        9.6030    2.1860    8.2290 O.co2 619  ASP619     -0.2456
     39  N          9.5080   13.1120   12.0290 N.3   742  MET742     -0.1245
     40  CA         9.7840   12.9420   10.6450 C.3   742  MET742      0.1570
     41  C          8.6190   13.6430   10.0090 C.2   742  MET742      0.2261
     42  O          7.5120   13.6800   10.5630 O.2   742  MET742     -0.2867
     43  CB         9.7110   11.4120   10.2350 C.3   742  MET742      0.0387
     44  CG        11.0880   10.6940   10.3650 C.3   742  MET742      0.0595
     45  SD        12.1410   10.7100    8.8370 S.3   742  MET742     -0.1393
     46  CE        12.4080    8.9090    8.9380 C.3   742  MET742      0.0692
     47  N          6.8890   13.0130    6.7400 N.3   744  GLU744     -0.1245
     48  CA         6.9370   12.1320    5.6160 C.3   744  GLU744      0.1567
     49  C          5.6200   11.6270    5.1470 C.2   744  GLU744      0.2260
     50  O          5.5510   10.7940    4.2750 O.2   744  GLU744     -0.2867
     51  CB         7.9170   11.0300    5.9510 C.3   744  GLU744      0.0388
     52  CG         7.4520    9.9580    6.9760 C.3   744  GLU744      0.1160
     53  CD         8.6310    9.1580    7.4820 C.2   744  GLU744      0.3649
     54  OE1        9.6080    8.9870    6.7320 O.co2 744  GLU744     -0.2457
     55  OE2        8.5860    8.7380    8.6400 O.co2 744  GLU744     -0.2457
     56  N         11.5460   12.7160    5.6110 N.3   765  GLY765     -0.1210
     57  CA        11.8120   11.3680    5.1120 C.3   765  GLY765      0.1956
     58  C         11.3030   11.3960    3.7070 C.2   765  GLY765      0.2613
     59  O         10.1470   11.1010    3.4760 O.2   765  GLY765     -0.2717
     60  N         12.1420   11.7280    2.7400 N.am  766  THR766     -0.1938
     61  CA        11.5540   11.8850    1.3990 C.3   766  THR766      0.2028
     62  C         11.2670   10.6650    0.5630 C.2   766  THR766      0.2642
     63  O         10.6520   10.7950   -0.5160 O.2   766  THR766     -0.2714
     64  CB        12.3110   12.9290    0.5650 C.3   766  THR766      0.1808
     65  OG1       13.7050   12.6240    0.5880 O.3   766  THR766     -0.2208
     66  CG2       12.0570   14.4040    1.1580 C.3   766  THR766      0.0379
     67  N         11.6820    9.4830    1.0280 N.am  767  ASN767     -0.1957
     68  CA        11.3170    8.3330    0.2550 C.3   767  ASN767      0.1819
     69  C          9.7880    8.2820    0.4910 C.2   767  ASN767      0.2621
     70  O          9.0310    8.3790   -0.4560 O.2   767  ASN767     -0.2715
     71  CB        12.1010    7.1040    0.7580 C.3   767  ASN767      0.1195
     72  CG        13.6010    7.3290    0.6390 C.2   767  ASN767      0.2630
     73  OD1       14.0640    7.9640   -0.3240 O.2   767  ASN767     -0.2716
     74  ND2       14.3600    6.8700    1.6240 N.am  767  ASN767     -0.0877
     75  N          9.3480    8.2740    1.7510 N.am  768  ASP768     -0.1971
     76  CA         7.9180    8.1740    2.0500 C.3   768  ASP768      0.1709
     77  C          7.1580    9.3060    1.5310 C.2   768  ASP768      0.2293
     78  O          6.1710    9.1040    0.8250 O.2   768  ASP768     -0.2864
     79  CB         7.6810    8.0210    3.5680 C.3   768  ASP768      0.1436
     80  CG         7.8430    6.5410    4.0290 C.2   768  ASP768      0.3671
     81  OD1        7.2210    5.7070    3.3680 O.co2 768  ASP768     -0.2456
     82  OD2        8.5360    6.2160    5.0330 O.co2 768  ASP768     -0.2456
     83  N         16.4870   13.1050    5.0810 N.3   830  CYS830     -0.1221
     84  CA        17.2790   11.8570    5.1390 C.3   830  CYS830      0.1808
     85  C         16.7740   10.7750    4.1870 C.2   830  CYS830      0.2601
     86  O         17.2700    9.6710    4.1950 O.2   830  CYS830     -0.2717
     87  CB        17.2930   11.2920    6.5690 C.3   830  CYS830      0.0970
     88  SG        15.6060   10.8400    7.1670 S.3   830  CYS830     -0.0800
     89  N         15.7880   11.1100    3.3620 N.am  831  GLY831     -0.1957
     90  CA        15.3300   10.1910    2.3390 C.3   831  GLY831      0.1869
     91  C         16.5310   10.1540    1.3720 C.2   831  GLY831      0.2309
     92  O         17.5450   10.8000    1.6100 O.2   831  GLY831     -0.2863
@<TRIPOS>BOND
     1    63    62    2
     2    70    69    2
     3    73    72    2
     4    68    69    1
     5    68    71    1
     6    68    67    1
     7    69    75   am
     8    62    67   am
     9    62    61    1
    10    64    65    1
    11    64    66    1
    12    64    61    1
    13    72    71    1
    14    72    74   am
    15    78    77    2
    16    91    92    2
    17    91    90    1
    18    61    60    1
    19    77    76    1
    20    75    76    1
    21    76    79    1
    22    90    89    1
    23    60    58   am
    24    89    85   am
    25    81    80   ar
    26    59    58    2
    27    79    80    1
    28    58    57    1
    29    80    82   ar
    30    85    86    2
    31    85    84    1
    32    50    49    2
    33    83    84    1
    34    57    56    1
    35    84    87    1
    36    49    48    1
    37    18    17    1
    38    48    51    1
    39    48    47    1
    40    51    52    1
    41    17    19    1
    42    17    16    2
    43    87    88    1
    44    54    53   ar
    45    16    15    1
    46    52    53    1
    47    53    55   ar
    48     8     6    1
    49    30    28    1
    50    15    14    1
    51    38    36   ar
    52    45    46    1
    53    45    44    1
    54     6     5    1
    55     6     7    1
    56    37    36   ar
    57    36    35    1
    58     5     2    1
    59    14    13    1
    60    28    29    1
    61    28    27    2
    62    41    42    2
    63    41    40    1
    64    43    44    1
    65    43    40    1
    66     4     3    2
    67    27    26    1
    68    35    32    1
    69     1     2    1
    70    34    33    2
    71    13    10    1
    72     2     3    1
    73    40    39    1
    74    33    32    1
    75    32    31    1
    76    26    25    1
    77     9    10    1
    78    10    11    1
    79    25    24    1
    80    24    21    1
    81    11    12    2
    82    21    20    1
    83    21    22    1
    84    23    22    2
