@<TRIPOS>MOLECULE
tmp/1kccA00.pdb
 96 92 0 0 0
SMALL
GASTEIGER

@<TRIPOS>ATOM
      1  N         20.3400   50.1230  -12.2430 N.3    89  ASN89      -0.1240
      2  CA        19.2210   49.4460  -12.8590 C.3    89  ASN89       0.1653
      3  C         18.6350   50.2060  -13.9940 C.2    89  ASN89       0.2266
      4  O         18.0690   49.5820  -14.9360 O.2    89  ASN89      -0.2867
      5  CB        18.1430   49.1560  -11.7830 C.3    89  ASN89       0.1155
      6  CG        18.7140   48.0530  -10.8650 C.2    89  ASN89       0.2627
      7  OD1       19.3970   47.0950  -11.3530 O.2    89  ASN89      -0.2716
      8  ND2       18.4690   48.1020   -9.5880 N.am   89  ASN89      -0.0877
      9  N         22.0290   54.4040   -4.7490 N.3   148  HIS148     -0.1226
     10  CA        21.4870   53.0630   -4.9780 C.3   148  HIS148      0.1752
     11  C         22.5860   52.2170   -5.6060 C.2   148  HIS148      0.2596
     12  O         23.4480   52.7280   -6.3510 O.2   148  HIS148     -0.2718
     13  CB        20.2430   53.1530   -5.8290 C.3   148  HIS148      0.0759
     14  CG        19.4150   51.8900   -5.7190 C.ar  148  HIS148      0.0818
     15  ND1       18.6650   51.5920   -4.6120 N.ar  148  HIS148     -0.2268
     16  CD2       19.2480   50.8750   -6.6040 C.ar  148  HIS148      0.1154
     17  CE1       18.0510   50.4220   -4.7730 C.ar  148  HIS148      0.1986
     18  NE2       18.3840   49.9650   -5.9980 N.ar  148  HIS148     -0.2212
     19  N         22.5760   50.9190   -5.3410 N.am  149  ASN149     -0.1974
     20  CA        23.6140   50.0180   -5.8640 C.3   149  ASN149      0.1688
     21  C         25.0250   50.4900   -5.4440 C.2   149  ASN149      0.2292
     22  O         26.0040   50.2270   -6.1430 O.2   149  ASN149     -0.2864
     23  CB        23.5620   49.8420   -7.3860 C.3   149  ASN149      0.1181
     24  CG        22.2560   49.2050   -7.8200 C.2   149  ASN149      0.2629
     25  OD1       21.4900   49.8210   -8.5790 O.2   149  ASN149     -0.2716
     26  ND2       21.9700   47.9830   -7.3730 N.am  149  ASN149     -0.0877
     27  N         23.3990   49.5970   -0.4080 N.3   171  ASP171     -0.1239
     28  CA        23.2530   48.2530   -0.9630 C.3   171  ASP171      0.1674
     29  C         24.1740   47.3420   -0.1590 C.2   171  ASP171      0.2266
     30  O         24.5270   47.6710    1.0000 O.2   171  ASP171     -0.2867
     31  CB        23.5290   48.2160   -2.4840 C.3   171  ASP171      0.1410
     32  CG        22.8130   47.0440   -3.1890 C.2   171  ASP171      0.3668
     33  OD1       21.7970   47.2830   -3.8710 O.co2 171  ASP171     -0.2456
     34  OD2       23.2600   45.8930   -3.0560 O.co2 171  ASP171     -0.2456
     35  N         22.3080   46.8680    2.6200 N.3   193  HIS193     -0.1241
     36  CA        21.5740   45.6260    2.4750 C.3   193  HIS193      0.1621
     37  C         22.2800   44.4610    3.1710 C.2   193  HIS193      0.2264
     38  O         21.8490   43.3170    2.9510 O.2   193  HIS193     -0.2867
     39  CB        21.2920   45.3020    1.0070 C.3   193  HIS193      0.0745
     40  CG        20.3860   46.3160    0.3220 C.ar  193  HIS193      0.0817
     41  ND1       19.9490   46.1600   -0.9800 N.ar  193  HIS193     -0.2268
     42  CD2       19.8540   47.4740    0.7530 C.ar  193  HIS193      0.1154
     43  CE1       19.2040   47.1880   -1.3120 C.ar  193  HIS193      0.1986
     44  NE2       19.1340   48.0140   -0.2780 N.ar  193  HIS193     -0.2212
     45  N         18.7380   46.5720    5.4130 N.3   220  MET220     -0.1230
     46  CA        17.5510   45.8550    4.9470 C.3   220  MET220      0.1702
     47  C         17.6000   44.3730    5.2920 C.2   220  MET220      0.2592
     48  O         16.5420   43.7450    5.5020 O.2   220  MET220     -0.2718
     49  CB        17.4110   46.0030    3.4110 C.3   220  MET220      0.0401
     50  CG        17.0700   47.4580    3.1090 C.3   220  MET220      0.0596
     51  SD        16.2770   47.6200    1.5180 S.3   220  MET220     -0.1393
     52  CE        16.2220   45.9410    1.0440 C.3   220  MET220      0.0692
     53  N         18.7950   43.7950    5.3080 N.am  221  TYR221     -0.1976
     54  CA        19.0240   42.3800    5.6380 C.3   221  TYR221      0.1639
     55  C         20.2220   42.3420    6.5680 C.2   221  TYR221      0.2290
     56  O         21.0880   43.2410    6.5360 O.2   221  TYR221     -0.2864
     57  CB        19.3360   41.5370    4.4170 C.3   221  TYR221      0.0560
     58  CG        18.3510   41.6380    3.2600 C.ar  221  TYR221     -0.0198
     59  CD1       17.2910   40.7640    3.1100 C.ar  221  TYR221     -0.0009
     60  CD2       18.5650   42.6460    2.3010 C.ar  221  TYR221     -0.0009
     61  CE1       16.4560   40.9020    2.0430 C.ar  221  TYR221      0.0417
     62  CE2       17.6940   42.7410    1.2190 C.ar  221  TYR221      0.0417
     63  CZ        16.6120   41.8590    1.1220 C.ar  221  TYR221      0.1957
     64  OH        15.7970   41.9620    0.0150 O.3   221  TYR221     -0.2866
     65  N         22.8780   37.4680    4.0610 N.3   224  ARG224     -0.1245
     66  CA        22.2070   36.7670    2.9860 C.3   224  ARG224      0.1563
     67  C         23.1660   35.8670    2.2210 C.2   224  ARG224      0.2260
     68  O         24.3130   36.2370    1.9830 O.2   224  ARG224     -0.2867
     69  CB        21.6200   37.7170    1.9490 C.3   224  ARG224      0.0307
     70  CG        20.2990   38.3410    2.3170 C.3   224  ARG224      0.0489
     71  CD        19.7420   38.9740    0.9640 C.3   224  ARG224      0.2205
     72  NE        20.6030   40.1390    0.7130 N.pl3 224  ARG224     -0.0865
     73  CZ        20.2920   40.9880   -0.3060 C.cat 224  ARG224      0.5346
     74  NH1       19.2490   40.7700   -1.0970 N.pl3 224  ARG224      0.1354
     75  NH2       21.0950   42.0560   -0.5200 N.pl3 224  ARG224      0.1354
     76  N         22.4300   34.4990   -1.5180 N.3   226  LYS226     -0.1245
     77  CA        21.4450   34.6050   -2.5840 C.3   226  LYS226      0.1561
     78  C         21.9960   33.9930   -3.8380 C.2   226  LYS226      0.2260
     79  O         23.1110   34.3210   -4.2720 O.2   226  LYS226     -0.2867
     80  CB        21.0590   36.1000   -2.8350 C.3   226  LYS226      0.0271
     81  CG        22.1340   37.1390   -2.6100 C.3   226  LYS226      0.0035
     82  CD        21.6920   38.5650   -3.1080 C.3   226  LYS226      0.0206
     83  CE        22.7480   39.5770   -2.6090 C.3   226  LYS226      0.1093
     84  NZ        22.5280   40.9100   -3.2440 N.3   226  LYS226     -0.1314
     85  N         16.5000   34.1020   -6.0350 N.3   260  TYR260     -0.1241
     86  CA        16.8290   35.4840   -6.4180 C.3   260  TYR260      0.1605
     87  C         16.4970   35.7100   -7.8700 C.2   260  TYR260      0.2264
     88  O         16.7860   34.8590   -8.7250 O.2   260  TYR260     -0.2867
     89  CB        18.3300   35.7040   -6.1390 C.3   260  TYR260      0.0534
     90  CG        18.6850   37.1890   -6.1840 C.ar  260  TYR260     -0.0201
     91  CD1       18.5410   37.9770   -5.0170 C.ar  260  TYR260     -0.0009
     92  CD2       19.1450   37.7620   -7.3240 C.ar  260  TYR260     -0.0009
     93  CE1       18.8550   39.3250   -5.0290 C.ar  260  TYR260      0.0417
     94  CE2       19.4740   39.1440   -7.3590 C.ar  260  TYR260      0.0417
     95  CZ        19.3130   39.8870   -6.1940 C.ar  260  TYR260      0.1957
     96  OH        19.6510   41.2370   -6.2300 O.3   260  TYR260     -0.2866
@<TRIPOS>BOND
     1     4     3    2
     2     3     2    1
     3     2     1    1
     4     2     5    1
     5     5     6    1
     6     7     6    2
     7     6     8   am
     8    88    87    2
     9    25    24    2
    10    87    86    1
    11    24    23    1
    12    24    26   am
    13    23    20    1
    14    94    92   ar
    15    94    95   ar
    16    92    90   ar
    17    16    18   ar
    18    16    14   ar
    19    86    89    1
    20    86    85    1
    21    12    11    2
    22    96    95    1
    23    95    93   ar
    24    90    89    1
    25    90    91   ar
    26    22    21    2
    27    18    17   ar
    28    20    21    1
    29    20    19    1
    30    13    14    1
    31    13    10    1
    32    14    15   ar
    33    11    19   am
    34    11    10    1
    35    93    91   ar
    36    10     9    1
    37    17    15   ar
    38    79    78    2
    39    33    32   ar
    40    78    77    1
    41    84    83    1
    42    32    34   ar
    43    32    31    1
    44    82    81    1
    45    82    83    1
    46    80    81    1
    47    80    77    1
    48    77    76    1
    49    31    28    1
    50    43    41   ar
    51    43    44   ar
    52    74    73    1
    53    41    40   ar
    54    28    27    1
    55    28    29    1
    56    75    73    1
    57    73    72    2
    58    44    42   ar
    59    29    30    2
    60    64    63    1
    61    40    42   ar
    62    40    39    1
    63    72    71    1
    64    71    70    1
    65    39    36    1
    66    52    51    1
    67    63    62   ar
    68    63    61   ar
    69    62    60   ar
    70    51    50    1
    71    69    70    1
    72    69    66    1
    73    68    67    2
    74    61    59   ar
    75    67    66    1
    76    60    58   ar
    77    36    35    1
    78    36    37    1
    79    38    37    2
    80    66    65    1
    81    50    49    1
    82    59    58   ar
    83    58    57    1
    84    49    46    1
    85    57    54    1
    86    46    47    1
    87    46    45    1
    88    47    53   am
    89    47    48    2
    90    53    54    1
    91    54    55    1
    92    56    55    2
