@<TRIPOS>MOLECULE
tmp/1kcdA00.pdb
 117 106 0 0 0
SMALL
GASTEIGER

@<TRIPOS>ATOM
      1  N         22.0850   51.3500  -10.7760 N.3    88  THR88      -0.1203
      2  CA        22.4670   50.7640  -12.0620 C.3    88  THR88       0.1994
      3  C         21.3070   50.0230  -12.6840 C.2    88  THR88       0.2617
      4  O         21.5040   49.3520  -13.7070 O.2    88  THR88      -0.2717
      5  CB        23.7220   49.8840  -11.8910 C.3    88  THR88       0.1784
      6  OG1       23.4910   48.8850  -10.8960 O.3    88  THR88      -0.2211
      7  CG2       24.9020   50.7260  -11.4110 C.3    88  THR88       0.0376
      8  N         20.1060   50.1690  -12.1340 N.am   89  ASN89      -0.1974
      9  CA        18.9720   49.5050  -12.7810 C.3    89  ASN89       0.1688
     10  C         18.3760   50.2990  -13.8750 C.2    89  ASN89       0.2292
     11  O         17.8140   49.6870  -14.8360 O.2    89  ASN89      -0.2864
     12  CB        17.9130   49.1880  -11.6990 C.3    89  ASN89       0.1181
     13  CG        18.4440   48.0650  -10.7970 C.2    89  ASN89       0.2629
     14  OD1       19.0670   47.1340  -11.3380 O.2    89  ASN89      -0.2716
     15  ND2       18.2050   48.1520   -9.5260 N.am   89  ASN89      -0.0877
     16  N         28.3940   51.1170   -7.3820 N.3   118  GLN118     -0.1245
     17  CA        29.1800   50.1470   -6.6180 C.3   118  GLN118      0.1566
     18  C         30.5690   50.7340   -6.3600 C.2   118  GLN118      0.2260
     19  O         31.2040   51.2990   -7.2810 O.2   118  GLN118     -0.2867
     20  CB        29.3260   48.8640   -7.4010 C.3   118  GLN118      0.0367
     21  CG        27.9650   48.1360   -7.5460 C.3   118  GLN118      0.0905
     22  CD        27.2580   48.5270   -8.8260 C.2   118  GLN118      0.2608
     23  OE1       27.3870   49.5930   -9.3810 O.2   118  GLN118     -0.2717
     24  NE2       26.3890   47.6360   -9.3220 N.am  118  GLN118     -0.0878
     25  N         22.4140   50.9020   -5.2860 N.3   149  ASN149     -0.1240
     26  CA        23.4550   50.0030   -5.8120 C.3   149  ASN149      0.1653
     27  C         24.8600   50.4540   -5.4430 C.2   149  ASN149      0.2266
     28  O         25.8150   50.2280   -6.1930 O.2   149  ASN149     -0.2867
     29  CB        23.3650   49.7860   -7.3470 C.3   149  ASN149      0.1155
     30  CG        22.0460   49.1530   -7.7250 C.2   149  ASN149      0.2627
     31  OD1       21.2780   49.7380   -8.4970 O.2   149  ASN149     -0.2716
     32  ND2       21.8020   47.9430   -7.2600 N.am  149  ASN149     -0.0877
     33  N         27.1330   49.3490   -3.4470 N.3   151  ASP151     -0.1239
     34  CA        27.8080   48.2840   -2.7360 C.3   151  ASP151      0.1674
     35  C         29.1530   48.7330   -2.1940 C.2   151  ASP151      0.2266
     36  O         29.9230   49.4150   -2.8670 O.2   151  ASP151     -0.2867
     37  CB        28.1180   47.0910   -3.6700 C.3   151  ASP151      0.1410
     38  CG        26.9230   46.4240   -4.3440 C.2   151  ASP151      0.3668
     39  OD1       25.9530   47.1490   -4.6140 O.co2 151  ASP151     -0.2456
     40  OD2       26.9880   45.2160   -4.6430 O.co2 151  ASP151     -0.2456
     41  N         32.4800   44.5420   -3.7810 N.3   154  ASP154     -0.1239
     42  CA        32.0080   43.4110   -4.6140 C.3   154  ASP154      0.1674
     43  C         33.2080   42.5380   -4.8800 C.2   154  ASP154      0.2266
     44  O         34.1780   43.0280   -5.4820 O.2   154  ASP154     -0.2867
     45  CB        31.3930   43.9130   -5.9120 C.3   154  ASP154      0.1410
     46  CG        30.0920   44.6730   -5.6380 C.2   154  ASP154      0.3668
     47  OD1       29.2950   44.1910   -4.7800 O.co2 154  ASP154     -0.2456
     48  OD2       29.8850   45.6940   -6.3260 O.co2 154  ASP154     -0.2456
     49  N         23.2440   49.5560   -0.4350 N.3   171  ASP171     -0.1225
     50  CA        23.0810   48.2230   -1.0060 C.3   171  ASP171      0.1805
     51  C         24.0110   47.2980   -0.2170 C.2   171  ASP171      0.2597
     52  O         24.3580   47.6240    0.9490 O.2   171  ASP171     -0.2718
     53  CB        23.3980   48.1880   -2.5240 C.3   171  ASP171      0.1424
     54  CG        22.7190   47.0200   -3.2230 C.2   171  ASP171      0.3668
     55  OD1       21.6570   47.2160   -3.8690 O.co2 171  ASP171     -0.2456
     56  OD2       23.1870   45.8630   -3.1060 O.co2 171  ASP171     -0.2456
     57  N         24.3880   46.1460   -0.7670 N.am  172  ASP172     -0.1974
     58  CA        25.1940   45.2150    0.0480 C.3   172  ASP172      0.1709
     59  C         26.4060   45.8990    0.6440 C.2   172  ASP172      0.2293
     60  O         27.1380   46.6190   -0.0400 O.2   172  ASP172     -0.2864
     61  CB        25.6330   44.0320   -0.8420 C.3   172  ASP172      0.1436
     62  CG        24.4630   43.1420   -1.1830 C.2   172  ASP172      0.3671
     63  OD1       23.6660   42.8280   -0.2530 O.co2 172  ASP172     -0.2456
     64  OD2       24.3800   42.7070   -2.3630 O.co2 172  ASP172     -0.2456
     65  N         29.2870   42.0280   -1.2070 N.3   175  ALA175     -0.1245
     66  CA        28.6840   40.9650   -1.9720 C.3   175  ALA175      0.1562
     67  C         29.8220   40.0710   -2.4610 C.2   175  ALA175      0.2260
     68  O         30.6670   40.5800   -3.2530 O.2   175  ALA175     -0.2867
     69  CB        27.8780   41.5130   -3.1430 C.3   175  ALA175      0.0290
     70  N         30.7690   37.3170   -4.7650 N.3   177  ASN177     -0.1240
     71  CA        30.1180   36.7330   -5.9400 C.3   177  ASN177      0.1653
     72  C         30.8220   35.5010   -6.5060 C.2   177  ASN177      0.2266
     73  O         30.2040   34.7530   -7.2570 O.2   177  ASN177     -0.2867
     74  CB        30.0280   37.8150   -7.0230 C.3   177  ASN177      0.1155
     75  CG        29.1510   38.9750   -6.5580 C.2   177  ASN177      0.2627
     76  OD1       29.5530   40.1640   -6.6740 O.2   177  ASN177     -0.2716
     77  ND2       28.0000   38.6110   -6.0630 N.am  177  ASN177     -0.0877
     78  N         26.6330   36.4020   -3.0060 N.3   198  GLY198     -0.1210
     79  CA        25.8240   36.4280   -4.2270 C.3   198  GLY198      0.1956
     80  C         25.3700   37.8250   -4.5900 C.2   198  GLY198      0.2612
     81  O         25.7960   38.7890   -3.9440 O.2   198  GLY198     -0.2717
     82  N         24.4890   37.9370   -5.5850 N.am  199  SER199     -0.1952
     83  CA        23.7860   36.7730   -6.1190 C.3   199  SER199      0.1924
     84  C         24.7180   35.8750   -6.9170 C.2   199  SER199      0.2314
     85  O         25.5710   36.3030   -7.7010 O.2   199  SER199     -0.2863
     86  CB        22.6120   37.2310   -7.0120 C.3   199  SER199      0.2116
     87  OG        23.0770   37.7970   -8.2280 O.3   199  SER199     -0.2180
     88  N         22.3440   34.4970   -1.5090 N.3   226  LYS226     -0.1245
     89  CA        21.3670   34.5970   -2.5920 C.3   226  LYS226      0.1561
     90  C         21.9220   33.9720   -3.8390 C.2   226  LYS226      0.2260
     91  O         23.0340   34.2820   -4.2450 O.2   226  LYS226     -0.2867
     92  CB        21.0330   36.0860   -2.8770 C.3   226  LYS226      0.0271
     93  CG        22.1240   37.1450   -2.6530 C.3   226  LYS226      0.0035
     94  CD        21.6630   38.5410   -3.1160 C.3   226  LYS226      0.0206
     95  CE        22.6970   39.6140   -2.6760 C.3   226  LYS226      0.1093
     96  NZ        22.4690   40.8740   -3.3480 N.3   226  LYS226     -0.1314
     97  N         20.8140   33.1850   -7.9230 N.3   228  GLN228     -0.1245
     98  CA        19.8240   33.3650   -8.9750 C.3   228  GLN228      0.1566
     99  C         19.0620   32.0670   -9.2150 C.2   228  GLN228      0.2260
    100  O         19.6660   30.9920   -9.3420 O.2   228  GLN228     -0.2867
    101  CB        20.5640   33.7780  -10.2740 C.3   228  GLN228      0.0367
    102  CG        21.1970   35.1650  -10.1000 C.3   228  GLN228      0.0905
    103  CD        22.1490   35.6070  -11.1790 C.2   228  GLN228      0.2608
    104  OE1       22.0540   35.1440  -12.3240 O.2   228  GLN228     -0.2717
    105  NE2       23.0320   36.5530  -10.8630 N.am  228  GLN228     -0.0878
    106  N         16.5240   34.0730   -6.0530 N.3   260  TYR260     -0.1241
    107  CA        16.8380   35.4390   -6.4310 C.3   260  TYR260      0.1605
    108  C         16.4910   35.6720   -7.8740 C.2   260  TYR260      0.2264
    109  O         16.7870   34.8370   -8.7630 O.2   260  TYR260     -0.2867
    110  CB        18.3400   35.6720   -6.1610 C.3   260  TYR260      0.0534
    111  CG        18.6650   37.1650   -6.1890 C.ar  260  TYR260     -0.0201
    112  CD1       18.4920   37.9590   -5.0280 C.ar  260  TYR260     -0.0009
    113  CD2       19.1540   37.7520   -7.3310 C.ar  260  TYR260     -0.0009
    114  CE1       18.7950   39.3160   -5.0300 C.ar  260  TYR260      0.0417
    115  CE2       19.4590   39.1310   -7.3640 C.ar  260  TYR260      0.0417
    116  CZ        19.2610   39.8860   -6.2120 C.ar  260  TYR260      0.1957
    117  OH        19.5760   41.2420   -6.2680 O.3   260  TYR260     -0.2866
@<TRIPOS>BOND
     1    11    10    2
     2    10     9    1
     3     4     3    2
     4     9     8    1
     5     9    12    1
     6     3     8   am
     7     3     2    1
     8   104   103    2
     9     2     5    1
    10     2     1    1
    11     5     7    1
    12     5     6    1
    13    12    13    1
    14    14    13    2
    15   103   105   am
    16   103   102    1
    17    13    15   am
    18   101   102    1
    19   101    98    1
    20    23    22    2
    21   100    99    2
    22    24    22   am
    23    99    98    1
    24    98    97    1
    25    22    21    1
    26   109   108    2
    27    31    30    2
    28    87    86    1
    29   108   107    1
    30    30    29    1
    31    30    32   am
    32    85    84    2
    33    21    20    1
    34    20    17    1
    35    16    17    1
    36   115   113   ar
    37   115   116   ar
    38    29    26    1
    39   113   111   ar
    40    19    18    2
    41    73    72    2
    42    74    75    1
    43    74    71    1
    44    86    83    1
    45    84    83    1
    46    76    75    2
    47    17    18    1
    48    75    77   am
    49    72    71    1
    50   107   110    1
    51   107   106    1
    52    48    46   ar
    53   117   116    1
    54   116   114   ar
    55    28    27    2
    56   111   110    1
    57   111   112   ar
    58    83    82    1
    59    71    70    1
    60    45    46    1
    61    45    42    1
    62    26    27    1
    63    26    25    1
    64    46    47   ar
    65    82    80   am
    66    44    43    2
    67   114   112   ar
    68    43    42    1
    69    40    38   ar
    70    42    41    1
    71    39    38   ar
    72    80    79    1
    73    80    81    2
    74    38    37    1
    75    91    90    2
    76    79    78    1
    77    55    54   ar
    78    90    89    1
    79    37    34    1
    80    33    34    1
    81    96    95    1
    82    68    67    2
    83    54    56   ar
    84    54    53    1
    85    69    66    1
    86    94    95    1
    87    94    93    1
    88    92    93    1
    89    92    89    1
    90    36    35    2
    91    34    35    1
    92    89    88    1
    93    53    50    1
    94    67    66    1
    95    64    62   ar
    96    66    65    1
    97    62    61    1
    98    62    63   ar
    99    50    49    1
   100    50    51    1
   101    61    58    1
   102    57    51   am
   103    57    58    1
   104    51    52    2
   105    60    59    2
   106    58    59    1
