@<TRIPOS>MOLECULE
tmp/1kckA03.pdb
 142 143 0 0 0
SMALL
GASTEIGER

@<TRIPOS>ATOM
      1  N         34.6650   92.7540   57.8080 N.3    89  TYR89      -0.1241
      2  CA        35.9100   93.4940   57.9280 C.3    89  TYR89       0.1605
      3  C         35.6140   94.9740   58.1250 C.2    89  TYR89       0.2264
      4  O         35.5150   95.7330   57.1590 O.2    89  TYR89      -0.2867
      5  CB        36.7640   93.2990   56.6740 C.3    89  TYR89       0.0534
      6  CG        37.3820   91.9210   56.5480 C.ar   89  TYR89      -0.0201
      7  CD1       38.2990   91.4580   57.4920 C.ar   89  TYR89      -0.0009
      8  CD2       37.0670   91.0900   55.4750 C.ar   89  TYR89      -0.0009
      9  CE1       38.8910   90.2020   57.3680 C.ar   89  TYR89       0.0417
     10  CE2       37.6530   89.8320   55.3420 C.ar   89  TYR89       0.0417
     11  CZ        38.5640   89.3960   56.2920 C.ar   89  TYR89       0.1957
     12  OH        39.1490   88.1600   56.1610 O.3    89  TYR89      -0.2866
     13  N         32.4830   84.5480   47.3290 N.3    97  TYR97      -0.1227
     14  CA        31.9440   84.5540   45.9720 C.3    97  TYR97       0.1736
     15  C         33.0510   84.3090   44.9520 C.2    97  TYR97       0.2595
     16  O         32.8130   83.7400   43.8860 O.2    97  TYR97      -0.2718
     17  CB        31.2680   85.8960   45.6770 C.3    97  TYR97       0.0548
     18  CG        32.2360   87.0480   45.5190 C.ar   97  TYR97      -0.0200
     19  CD1       32.8190   87.3390   44.2820 C.ar   97  TYR97      -0.0009
     20  CD2       32.5980   87.8270   46.6130 C.ar   97  TYR97      -0.0009
     21  CE1       33.7390   88.3780   44.1460 C.ar   97  TYR97       0.0417
     22  CE2       33.5150   88.8630   46.4900 C.ar   97  TYR97       0.0417
     23  CZ        34.0820   89.1330   45.2590 C.ar   97  TYR97       0.1957
     24  OH        34.9980   90.1500   45.1530 O.3    97  TYR97      -0.2866
     25  N         34.2610   84.7480   45.2930 N.am   98  HIS98      -0.1975
     26  CA        35.4280   84.6050   44.4250 C.3    98  HIS98       0.1656
     27  C         35.9690   83.1770   44.3730 C.2    98  HIS98       0.2291
     28  O         36.6690   82.8070   43.4300 O.2    98  HIS98      -0.2864
     29  CB        36.5210   85.5710   44.8830 C.3    98  HIS98       0.0771
     30  CG        36.7190   85.5940   46.3670 C.ar   98  HIS98       0.0820
     31  ND1       37.2800   84.5450   47.0600 N.ar   98  HIS98      -0.2267
     32  CD2       36.4070   86.5340   47.2900 C.ar   98  HIS98       0.1154
     33  CE1       37.3070   84.8380   48.3490 C.ar   98  HIS98       0.1986
     34  NE2       36.7830   86.0380   48.5140 N.ar   98  HIS98      -0.2212
     35  N         38.1560   81.6740   46.4990 N.3   100  TYR100     -0.1227
     36  CA        39.5220   81.4610   46.9790 C.3   100  TYR100      0.1736
     37  C         39.6380   81.0820   48.4540 C.2   100  TYR100      0.2595
     38  O         40.7480   80.9640   48.9800 O.2   100  TYR100     -0.2718
     39  CB        40.3770   82.7060   46.7150 C.3   100  TYR100      0.0548
     40  CG        40.7240   82.9230   45.2570 C.ar  100  TYR100     -0.0200
     41  CD1       41.5140   82.0050   44.5620 C.ar  100  TYR100     -0.0009
     42  CD2       40.2610   84.0470   44.5720 C.ar  100  TYR100     -0.0009
     43  CE1       41.8350   82.2010   43.2200 C.ar  100  TYR100      0.0417
     44  CE2       40.5740   84.2520   43.2310 C.ar  100  TYR100      0.0417
     45  CZ        41.3610   83.3260   42.5600 C.ar  100  TYR100      0.1957
     46  OH        41.6660   83.5310   41.2340 O.3   100  TYR100     -0.2866
     47  N         38.5010   80.8900   49.1170 N.am  101  TRP101     -0.1976
     48  CA        38.4960   80.5240   50.5310 C.3   101  TRP101      0.1640
     49  C         37.9820   79.1040   50.7210 C.2   101  TRP101      0.2290
     50  O         36.8760   78.8930   51.2240 O.2   101  TRP101     -0.2864
     51  CB        37.6270   81.5010   51.3300 C.3   101  TRP101      0.0576
     52  CG        38.1490   82.9080   51.3230 C.ar  101  TRP101      0.0006
     53  CD1       39.4270   83.3080   51.0460 C.ar  101  TRP101      0.0946
     54  CD2       37.4240   84.0960   51.6710 C.ar  101  TRP101      0.0152
     55  NE1       39.5410   84.6660   51.1990 N.ar  101  TRP101     -0.2442
     56  CE2       38.3280   85.1780   51.5800 C.ar  101  TRP101      0.0810
     57  CE3       36.0980   84.3530   52.0450 C.ar  101  TRP101      0.0012
     58  CZ2       37.9520   86.4980   51.8610 C.ar  101  TRP101      0.0191
     59  CZ3       35.7230   85.6670   52.3250 C.ar  101  TRP101      0.0001
     60  CH2       36.6490   86.7230   52.2270 C.ar  101  TRP101      0.0015
     61  N         46.4820   77.9680   50.7490 N.3   140  HIS140     -0.1241
     62  CA        45.7680   78.2320   51.9900 C.3   140  HIS140      0.1621
     63  C         44.3360   77.7150   51.9450 C.2   140  HIS140      0.2264
     64  O         43.8810   77.1780   50.9310 O.2   140  HIS140     -0.2867
     65  CB        45.7120   79.7370   52.2120 C.3   140  HIS140      0.0745
     66  CG        45.1830   80.4810   51.0280 C.ar  140  HIS140      0.0817
     67  ND1       45.9750   80.8180   49.9490 N.ar  140  HIS140     -0.2268
     68  CD2       43.9270   80.8690   50.7050 C.ar  140  HIS140      0.1154
     69  CE1       45.2290   81.3790   49.0160 C.ar  140  HIS140      0.1986
     70  NE2       43.9810   81.4220   49.4500 N.ar  140  HIS140     -0.2212
     71  N         40.2840   82.6870   55.7680 N.3   143  PRO143     -0.2116
     72  CA        40.6940   83.6480   56.7990 C.3   143  PRO143      0.1372
     73  C         40.5280   83.0630   58.2010 C.2   143  PRO143      0.2244
     74  O         39.4470   82.5920   58.5620 O.2   143  PRO143     -0.2868
     75  CB        39.7610   84.8340   56.5540 C.3   143  PRO143      0.0268
     76  CG        39.5150   84.7690   55.0820 C.3   143  PRO143      0.0207
     77  CD        39.2870   83.2910   54.8650 C.3   143  PRO143      0.0892
     78  N         48.2550   87.5020   54.0960 N.3   195  TYR195     -0.1227
     79  CA        47.1580   88.2480   54.6990 C.3   195  TYR195      0.1736
     80  C         46.7140   87.5080   55.9560 C.2   195  TYR195      0.2595
     81  O         47.5420   87.1680   56.8020 O.2   195  TYR195     -0.2718
     82  CB        45.9960   88.3840   53.7070 C.3   195  TYR195      0.0548
     83  CG        46.3760   89.1180   52.4370 C.ar  195  TYR195     -0.0200
     84  CD1       46.0860   88.5820   51.1820 C.ar  195  TYR195     -0.0009
     85  CD2       47.0530   90.3340   52.4900 C.ar  195  TYR195     -0.0009
     86  CE1       46.4670   89.2370   50.0090 C.ar  195  TYR195      0.0417
     87  CE2       47.4380   91.0000   51.3270 C.ar  195  TYR195      0.0417
     88  CZ        47.1440   90.4460   50.0910 C.ar  195  TYR195      0.1957
     89  OH        47.5400   91.0950   48.9420 O.3   195  TYR195     -0.2866
     90  N         45.4170   87.2480   56.0740 N.am  196  ASP196     -0.1960
     91  CA        44.8870   86.5500   57.2390 C.3   196  ASP196      0.1840
     92  C         44.4520   85.1310   56.8790 C.2   196  ASP196      0.2621
     93  O         43.7140   84.4870   57.6250 O.2   196  ASP196     -0.2715
     94  CB        43.7060   87.3370   57.8140 C.3   196  ASP196      0.1450
     95  CG        42.5340   87.4180   56.8520 C.2   196  ASP196      0.3671
     96  OD1       42.7670   87.5020   55.6270 O.co2 196  ASP196     -0.2456
     97  OD2       41.3770   87.4120   57.3210 O.co2 196  ASP196     -0.2456
     98  N         44.9250   84.6470   55.7340 N.am  197  LEU197     -0.1977
     99  CA        44.5880   83.3120   55.2500 C.3   197  LEU197      0.1596
    100  C         45.4320   82.2460   55.9340 C.2   197  LEU197      0.2287
    101  O         46.6520   82.3860   56.0470 O.2   197  LEU197     -0.2864
    102  CB        44.7970   83.2380   53.7340 C.3   197  LEU197      0.0297
    103  CG        43.9510   84.1790   52.8680 C.3   197  LEU197      0.0022
    104  CD1       44.4390   84.1450   51.4300 C.3   197  LEU197      0.0001
    105  CD2       42.4910   83.7730   52.9480 C.3   197  LEU197      0.0001
    106  N         41.2570   90.1580   37.7320 N.3   327  HIS327     -0.1226
    107  CA        40.5140   90.4190   38.9610 C.3   327  HIS327      0.1752
    108  C         41.3090   91.0930   40.0860 C.2   327  HIS327      0.2596
    109  O         40.7380   91.4590   41.1140 O.2   327  HIS327     -0.2718
    110  CB        39.9230   89.1070   39.4720 C.3   327  HIS327      0.0759
    111  CG        40.9460   88.0420   39.7100 C.ar  327  HIS327      0.0818
    112  ND1       41.8140   87.6120   38.7260 N.ar  327  HIS327     -0.2268
    113  CD2       41.2570   87.3320   40.8200 C.ar  327  HIS327      0.1154
    114  CE1       42.6130   86.6860   39.2220 C.ar  327  HIS327      0.1986
    115  NE2       42.2970   86.4970   40.4920 N.ar  327  HIS327     -0.2212
    116  N         42.6180   91.2500   39.9020 N.am  328  ASP328     -0.1974
    117  CA        43.4540   91.8910   40.9180 C.3   328  ASP328      0.1709
    118  C         44.0090   93.2340   40.4500 C.2   328  ASP328      0.2293
    119  O         44.8720   93.8140   41.1060 O.2   328  ASP328     -0.2864
    120  CB        44.6280   90.9880   41.3160 C.3   328  ASP328      0.1436
    121  CG        44.1840   89.7050   41.9980 C.2   328  ASP328      0.3671
    122  OD1       43.2550   89.7500   42.8310 O.co2 328  ASP328     -0.2456
    123  OD2       44.7830   88.6480   41.7110 O.co2 328  ASP328     -0.2456
    124  N         39.8660   95.6070   43.2840 N.3   371  ASP371     -0.1239
    125  CA        38.9230   94.7150   43.9460 C.3   371  ASP371      0.1674
    126  C         38.0970   95.4620   44.9980 C.2   371  ASP371      0.2266
    127  O         38.6530   96.1630   45.8460 O.2   371  ASP371     -0.2867
    128  CB        39.7180   93.5620   44.5750 C.3   371  ASP371      0.1410
    129  CG        38.8880   92.7030   45.4940 C.2   371  ASP371      0.3668
    130  OD1       37.7110   92.4450   45.1740 O.co2 371  ASP371     -0.2456
    131  OD2       39.4280   92.2740   46.5350 O.co2 371  ASP371     -0.2456
    132  N         35.1670   93.6180   39.4920 N.3   375  ARG375     -0.1245
    133  CA        34.4660   92.3410   39.4290 C.3   375  ARG375      0.1563
    134  C         32.9470   92.5000   39.3770 C.2   375  ARG375      0.2260
    135  O         32.2110   91.7140   39.9770 O.2   375  ARG375     -0.2867
    136  CB        34.8510   91.4880   40.6350 C.3   375  ARG375      0.0307
    137  CG        36.3480   91.3490   40.8220 C.3   375  ARG375      0.0489
    138  CD        36.6620   90.5930   42.0890 C.3   375  ARG375      0.2205
    139  NE        38.0940   90.5480   42.3650 N.pl3 375  ARG375     -0.0865
    140  CZ        38.6320   89.8580   43.3650 C.cat 375  ARG375      0.5346
    141  NH1       37.8540   89.1550   44.1790 N.pl3 375  ARG375      0.1354
    142  NH2       39.9450   89.8690   43.5540 N.pl3 375  ARG375      0.1354
@<TRIPOS>BOND
     1   106   107    1
     2   112   114   ar
     3   112   111   ar
     4   107   110    1
     5   107   108    1
     6   114   115   ar
     7   134   133    1
     8   134   135    2
     9   133   132    1
    10   133   136    1
    11   110   111    1
    12   111   113   ar
    13   116   108   am
    14   116   117    1
    15   108   109    2
    16   118   117    1
    17   118   119    2
    18   115   113   ar
    19   136   137    1
    20   137   138    1
    21   117   120    1
    22    46    45    1
    23   120   121    1
    24   123   121   ar
    25   121   122   ar
    26   138   139    1
    27   139   140    2
    28    45    43   ar
    29    45    44   ar
    30    43    41   ar
    31    44    42   ar
    32   124   125    1
    33   140   142    1
    34   140   141    1
    35    28    27    2
    36    16    15    2
    37   125   128    1
    38   125   126    1
    39    21    19   ar
    40    21    23   ar
    41    19    18   ar
    42    27    26    1
    43    26    29    1
    44    26    25    1
    45    41    40   ar
    46    42    40   ar
    47   128   129    1
    48    29    30    1
    49    15    25   am
    50    15    14    1
    51   126   127    2
    52    24    23    1
    53   130   129   ar
    54    40    39    1
    55    23    22   ar
    56   129   131   ar
    57    18    17    1
    58    18    20   ar
    59    17    14    1
    60    14    13    1
    61    30    31   ar
    62    30    32   ar
    63    22    20   ar
    64    35    36    1
    65    39    36    1
    66    36    37    1
    67    31    33   ar
    68    32    34   ar
    69    33    34   ar
    70    37    38    2
    71    37    47   am
    72    89    88    1
    73    69    70   ar
    74    69    67   ar
    75    47    48    1
    76    70    68   ar
    77    67    66   ar
    78    86    88   ar
    79    86    84   ar
    80    88    87   ar
    81    48    49    1
    82    48    51    1
    83    68    66   ar
    84    49    50    2
    85    61    62    1
    86    64    63    2
    87    66    65    1
    88    53    55   ar
    89    53    52   ar
    90    84    83   ar
    91    55    56   ar
    92    52    51    1
    93    52    54   ar
    94    87    85   ar
    95   104   103    1
    96    56    54   ar
    97    56    58   ar
    98    54    57   ar
    99    58    60   ar
   100    63    62    1
   101    62    65    1
   102    57    59   ar
   103    60    59   ar
   104    83    85   ar
   105    83    82    1
   106   103   105    1
   107   103   102    1
   108    82    79    1
   109   102    99    1
   110    78    79    1
   111    79    80    1
   112    77    76    1
   113    77    71    1
   114    76    75    1
   115    99    98    1
   116    99   100    1
   117    10     8   ar
   118    10    11   ar
   119     8     6   ar
   120    96    95   ar
   121    98    92   am
   122    71    72    1
   123   100   101    2
   124    80    90   am
   125    80    81    2
   126    90    91    1
   127    12    11    1
   128    11     9   ar
   129     6     5    1
   130     6     7   ar
   131    75    72    1
   132     5     2    1
   133    72    73    1
   134    95    97   ar
   135    95    94    1
   136    92    91    1
   137    92    93    2
   138     4     3    2
   139    91    94    1
   140     9     7   ar
   141     1     2    1
   142     2     3    1
   143    73    74    2
