@<TRIPOS>MOLECULE
tmp/1kckA04.pdb
 113 112 0 0 0
SMALL
GASTEIGER

@<TRIPOS>ATOM
      1  N         61.3960   84.0050   50.6560 N.3   187  GLU187     -0.1245
      2  CA        61.2360   83.0780   51.7700 C.3   187  GLU187      0.1567
      3  C         60.1470   83.5520   52.7280 C.2   187  GLU187      0.2260
      4  O         59.3390   82.7560   53.2140 O.2   187  GLU187     -0.2867
      5  CB        62.5660   82.9300   52.5190 C.3   187  GLU187      0.0388
      6  CG        62.4320   82.3940   53.9360 C.3   187  GLU187      0.1160
      7  CD        63.7730   82.1580   54.6070 C.2   187  GLU187      0.3649
      8  OE1       64.7130   82.9420   54.3540 O.co2 187  GLU187     -0.2457
      9  OE2       63.8800   81.1980   55.3990 O.co2 187  GLU187     -0.2457
     10  N         78.8590   81.3280   56.4270 N.3   598  THR598     -0.1203
     11  CA        79.2120   81.8800   55.1280 C.3   598  THR598      0.1994
     12  C         79.5250   83.3720   55.2380 C.2   598  THR598      0.2618
     13  O         79.3260   83.9820   56.2870 O.2   598  THR598     -0.2717
     14  CB        78.0500   81.6970   54.1230 C.3   598  THR598      0.1784
     15  OG1       76.8390   82.1920   54.7060 O.3   598  THR598     -0.2211
     16  CG2       77.8640   80.2310   53.7670 C.3   598  THR598      0.0376
     17  N         80.0190   83.9480   54.1460 N.am  599  ALA599     -0.1965
     18  CA        80.3180   85.3740   54.0850 C.3   599  ALA599      0.1728
     19  C         79.2610   86.0090   53.1880 C.2   599  ALA599      0.2616
     20  O         78.7050   85.3360   52.3190 O.2   599  ALA599     -0.2715
     21  CB        81.7040   85.5910   53.4990 C.3   599  ALA599      0.0334
     22  N         78.9780   87.2930   53.3910 N.am  600  LEU600     -0.1963
     23  CA        77.9730   87.9730   52.5760 C.3   600  LEU600      0.1728
     24  C         78.1660   87.7180   51.0850 C.2   600  LEU600      0.2617
     25  O         79.2790   87.8160   50.5650 O.2   600  LEU600     -0.2715
     26  CB        77.9910   89.4820   52.8360 C.3   600  LEU600      0.0311
     27  CG        77.1190   90.0110   53.9790 C.3   600  LEU600      0.0022
     28  CD1       77.1960   91.5320   54.0000 C.3   600  LEU600      0.0001
     29  CD2       75.6730   89.5630   53.7880 C.3   600  LEU600      0.0001
     30  N         77.0700   87.3900   50.4040 N.am  601  GLY601     -0.1940
     31  CA        77.1290   87.1150   48.9800 C.3   601  GLY601      0.2014
     32  C         77.3540   85.6410   48.7070 C.2   601  GLY601      0.2639
     33  O         77.1560   85.1660   47.5880 O.2   601  GLY601     -0.2714
     34  N         77.7720   84.9200   49.7420 N.am  602  GLN602     -0.1963
     35  CA        78.0290   83.4880   49.6520 C.3   602  GLN602      0.1733
     36  C         76.8240   82.7330   50.2050 C.2   602  GLN602      0.2616
     37  O         76.3360   83.0440   51.2900 O.2   602  GLN602     -0.2715
     38  CB        79.2860   83.1360   50.4520 C.3   602  GLN602      0.0408
     39  CG        79.7080   81.6820   50.3700 C.3   602  GLN602      0.0908
     40  CD        81.0360   81.4240   51.0600 C.2   602  GLN602      0.2608
     41  OE1       81.1800   81.6470   52.2630 O.2   602  GLN602     -0.2717
     42  NE2       82.0160   80.9510   50.2960 N.am  602  GLN602     -0.0878
     43  N         76.3480   81.7440   49.4560 N.am  603  ASN603     -0.1972
     44  CA        75.1800   80.9670   49.8610 C.3   603  ASN603      0.1688
     45  C         75.4340   79.4650   49.8440 C.2   603  ASN603      0.2292
     46  O         76.3710   78.9890   49.2050 O.2   603  ASN603     -0.2864
     47  CB        73.9990   81.2930   48.9420 C.3   603  ASN603      0.1181
     48  CG        73.4770   82.7000   49.1430 C.2   603  ASN603      0.2629
     49  OD1       72.8780   83.0070   50.1710 O.2   603  ASN603     -0.2716
     50  ND2       73.7060   83.5640   48.1620 N.am  603  ASN603     -0.0877
     51  N         69.7430   78.1320   49.4510 N.3   625  MET625     -0.1230
     52  CA        68.8810   77.6280   50.5090 C.3   625  MET625      0.1702
     53  C         68.4670   78.7660   51.4410 C.2   625  MET625      0.2592
     54  O         69.1220   79.8080   51.4890 O.2   625  MET625     -0.2718
     55  CB        69.5960   76.5220   51.2890 C.3   625  MET625      0.0401
     56  CG        69.8470   75.2640   50.4690 C.3   625  MET625      0.0596
     57  SD        70.6600   73.9580   51.4040 S.3   625  MET625     -0.1393
     58  CE        69.2610   73.2300   52.2830 C.3   625  MET625      0.0692
     59  N         67.3730   78.5640   52.1740 N.am  626  TYR626     -0.1962
     60  CA        66.8540   79.5850   53.0790 C.3   626  TYR626      0.1771
     61  C         67.4590   79.5030   54.4750 C.2   626  TYR626      0.2620
     62  O         67.9340   78.4460   54.8930 O.2   626  TYR626     -0.2715
     63  CB        65.3320   79.4710   53.1830 C.3   626  TYR626      0.0574
     64  CG        64.5940   79.6470   51.8740 C.ar  626  TYR626     -0.0198
     65  CD1       64.9550   80.6490   50.9750 C.ar  626  TYR626     -0.0009
     66  CD2       63.5040   78.8390   51.5560 C.ar  626  TYR626     -0.0009
     67  CE1       64.2480   80.8460   49.7930 C.ar  626  TYR626      0.0417
     68  CE2       62.7870   79.0270   50.3780 C.ar  626  TYR626      0.0417
     69  CZ        63.1650   80.0320   49.5030 C.ar  626  TYR626      0.1957
     70  OH        62.4580   80.2270   48.3410 O.3   626  TYR626     -0.2866
     71  N         67.4290   80.6190   55.1980 N.am  627  ASN627     -0.1958
     72  CA        67.9830   80.6600   56.5470 C.3   627  ASN627      0.1819
     73  C         67.3720   81.7400   57.4430 C.2   627  ASN627      0.2621
     74  O         68.0570   82.2870   58.3060 O.2   627  ASN627     -0.2715
     75  CB        69.4940   80.8770   56.4830 C.3   627  ASN627      0.1195
     76  CG        69.8670   82.1340   55.7240 C.2   627  ASN627      0.2630
     77  OD1       69.0960   83.0900   55.6730 O.2   627  ASN627     -0.2716
     78  ND2       71.0630   82.1460   55.1440 N.am  627  ASN627     -0.0877
     79  N         66.0900   82.0420   57.2610 N.am  628  GLN628     -0.1977
     80  CA        65.4610   83.0760   58.0740 C.3   628  GLN628      0.1601
     81  C         64.2210   82.6620   58.8600 C.2   628  GLN628      0.2287
     82  O         64.1690   82.8430   60.0770 O.2   628  GLN628     -0.2864
     83  CB        65.1240   84.2930   57.2050 C.3   628  GLN628      0.0394
     84  CG        66.3410   85.0690   56.7140 C.3   628  GLN628      0.0908
     85  CD        67.2250   85.5700   57.8530 C.2   628  GLN628      0.2608
     86  OE1       66.7640   86.2860   58.7480 O.2   628  GLN628     -0.2717
     87  NE2       68.5020   85.1970   57.8200 N.am  628  GLN628     -0.0878
     88  N         70.0480   81.0770   60.0950 N.3   633  TYR633     -0.1241
     89  CA        71.4930   80.9720   59.9300 C.3   633  TYR633      0.1605
     90  C         72.1690   80.8710   61.2970 C.2   633  TYR633      0.2264
     91  O         71.7320   81.5060   62.2550 O.2   633  TYR633     -0.2867
     92  CB        71.9930   82.2010   59.1590 C.3   633  TYR633      0.0534
     93  CG        73.4940   82.3220   59.0470 C.ar  633  TYR633     -0.0201
     94  CD1       74.2500   82.8580   60.0910 C.ar  633  TYR633     -0.0009
     95  CD2       74.1650   81.8960   57.9000 C.ar  633  TYR633     -0.0009
     96  CE1       75.6350   82.9670   59.9960 C.ar  633  TYR633      0.0417
     97  CE2       75.5510   82.0000   57.7970 C.ar  633  TYR633      0.0417
     98  CZ        76.2780   82.5370   58.8480 C.ar  633  TYR633      0.1957
     99  OH        77.6470   82.6450   58.7570 O.3   633  TYR633     -0.2866
    100  N         70.5750   76.1500   57.4940 N.3   636  TRP636     -0.1241
    101  CA        69.9170   76.3820   56.2120 C.3   636  TRP636      0.1605
    102  C         68.9400   75.2550   55.8810 C.2   636  TRP636      0.2264
    103  O         69.1720   74.0980   56.2300 O.2   636  TRP636     -0.2867
    104  CB        70.9620   76.4920   55.0950 C.3   636  TRP636      0.0550
    105  CG        72.0140   77.5540   55.3090 C.ar  636  TRP636      0.0003
    106  CD1       72.9390   77.6050   56.3160 C.ar  636  TRP636      0.0946
    107  CD2       72.2720   78.6930   54.4720 C.ar  636  TRP636      0.0152
    108  NE1       73.7560   78.6990   56.1560 N.ar  636  TRP636     -0.2442
    109  CE2       73.3710   79.3830   55.0320 C.ar  636  TRP636      0.0810
    110  CE3       71.6840   79.1930   53.3000 C.ar  636  TRP636      0.0012
    111  CZ2       73.8950   80.5520   54.4610 C.ar  636  TRP636      0.0191
    112  CZ3       72.2060   80.3570   52.7320 C.ar  636  TRP636      0.0001
    113  CH2       73.3010   81.0200   53.3140 C.ar  636  TRP636      0.0015
@<TRIPOS>BOND
     1    33    32    2
     2    50    48   am
     3    70    69    1
     4    32    31    1
     5    32    34   am
     6    47    48    1
     7    47    44    1
     8    31    30    1
     9    48    49    2
    10    46    45    2
    11    51    52    1
    12    43    44    1
    13    43    36   am
    14    69    67   ar
    15    69    68   ar
    16    35    34    1
    17    35    36    1
    18    35    38    1
    19    67    65   ar
    20    45    44    1
    21    36    37    2
    22    42    40   am
    23    39    38    1
    24    39    40    1
    25    68    66   ar
    26    30    24   am
    27    56    55    1
    28    56    57    1
    29    52    55    1
    30    52    53    1
    31    25    24    2
    32     1     2    1
    33    65    64   ar
    34    40    41    2
    35    24    23    1
    36    57    58    1
    37    53    54    2
    38    53    59   am
    39    66    64   ar
    40     2     5    1
    41     2     3    1
    42    64    63    1
    43    59    60    1
    44    20    19    2
    45     5     6    1
    46    23    26    1
    47    23    22    1
    48     3     4    2
    49   112   110   ar
    50   112   113   ar
    51    26    27    1
    52    60    63    1
    53    60    61    1
    54    19    22   am
    55    19    18    1
    56   110   107   ar
    57   113   111   ar
    58    21    18    1
    59    16    14    1
    60    29    27    1
    61     6     7    1
    62    27    28    1
    63    18    17    1
    64    14    15    1
    65    14    11    1
    66    17    12   am
    67     8     7   ar
    68   111   109   ar
    69   107   109   ar
    70   107   105   ar
    71    61    62    2
    72    61    71   am
    73     7     9   ar
    74   109   108   ar
    75   104   105    1
    76   104   101    1
    77    11    12    1
    78    11    10    1
    79    78    76   am
    80    71    72    1
    81    12    13    2
    82   105   106   ar
    83    77    76    2
    84    76    75    1
    85   102   101    1
    86   102   103    2
    87   108   106   ar
    88   101   100    1
    89    75    72    1
    90    72    73    1
    91    84    83    1
    92    84    85    1
    93    83    80    1
    94    79    73   am
    95    79    80    1
    96    73    74    2
    97    97    95   ar
    98    97    98   ar
    99    87    85   am
   100    85    86    2
   101    95    93   ar
   102    80    81    1
   103    99    98    1
   104    98    96   ar
   105    81    82    2
   106    93    92    1
   107    93    94   ar
   108    92    89    1
   109    89    88    1
   110    89    90    1
   111    96    94   ar
   112    90    91    2
