@<TRIPOS>MOLECULE
tmp/1kckA01.pdb
 137 134 0 0 0
SMALL
GASTEIGER

@<TRIPOS>ATOM
      1  N         38.1560   81.6740   46.4990 N.3   100  TYR100     -0.1227
      2  CA        39.5220   81.4610   46.9790 C.3   100  TYR100      0.1736
      3  C         39.6380   81.0820   48.4540 C.2   100  TYR100      0.2595
      4  O         40.7480   80.9640   48.9800 O.2   100  TYR100     -0.2718
      5  CB        40.3770   82.7060   46.7150 C.3   100  TYR100      0.0548
      6  CG        40.7240   82.9230   45.2570 C.ar  100  TYR100     -0.0200
      7  CD1       41.5140   82.0050   44.5620 C.ar  100  TYR100     -0.0009
      8  CD2       40.2610   84.0470   44.5720 C.ar  100  TYR100     -0.0009
      9  CE1       41.8350   82.2010   43.2200 C.ar  100  TYR100      0.0417
     10  CE2       40.5740   84.2520   43.2310 C.ar  100  TYR100      0.0417
     11  CZ        41.3610   83.3260   42.5600 C.ar  100  TYR100      0.1957
     12  OH        41.6660   83.5310   41.2340 O.3   100  TYR100     -0.2866
     13  N         38.5010   80.8900   49.1170 N.am  101  TRP101     -0.1976
     14  CA        38.4960   80.5240   50.5310 C.3   101  TRP101      0.1640
     15  C         37.9820   79.1040   50.7210 C.2   101  TRP101      0.2290
     16  O         36.8760   78.8930   51.2240 O.2   101  TRP101     -0.2864
     17  CB        37.6270   81.5010   51.3300 C.3   101  TRP101      0.0576
     18  CG        38.1490   82.9080   51.3230 C.ar  101  TRP101      0.0006
     19  CD1       39.4270   83.3080   51.0460 C.ar  101  TRP101      0.0946
     20  CD2       37.4240   84.0960   51.6710 C.ar  101  TRP101      0.0152
     21  NE1       39.5410   84.6660   51.1990 N.ar  101  TRP101     -0.2442
     22  CE2       38.3280   85.1780   51.5800 C.ar  101  TRP101      0.0810
     23  CE3       36.0980   84.3530   52.0450 C.ar  101  TRP101      0.0012
     24  CZ2       37.9520   86.4980   51.8610 C.ar  101  TRP101      0.0191
     25  CZ3       35.7230   85.6670   52.3250 C.ar  101  TRP101      0.0001
     26  CH2       36.6490   86.7230   52.2270 C.ar  101  TRP101      0.0015
     27  N         46.4820   77.9680   50.7490 N.3   140  HIS140     -0.1241
     28  CA        45.7680   78.2320   51.9900 C.3   140  HIS140      0.1621
     29  C         44.3360   77.7150   51.9450 C.2   140  HIS140      0.2264
     30  O         43.8810   77.1780   50.9310 O.2   140  HIS140     -0.2867
     31  CB        45.7120   79.7370   52.2120 C.3   140  HIS140      0.0745
     32  CG        45.1830   80.4810   51.0280 C.ar  140  HIS140      0.0817
     33  ND1       45.9750   80.8180   49.9490 N.ar  140  HIS140     -0.2268
     34  CD2       43.9270   80.8690   50.7050 C.ar  140  HIS140      0.1154
     35  CE1       45.2290   81.3790   49.0160 C.ar  140  HIS140      0.1986
     36  NE2       43.9810   81.4220   49.4500 N.ar  140  HIS140     -0.2212
     37  N         49.7430   84.5710   54.0110 N.3   194  LEU194     -0.1231
     38  CA        49.3490   85.6010   53.0580 C.3   194  LEU194      0.1693
     39  C         48.0970   86.2680   53.6260 C.2   194  LEU194      0.2592
     40  O         47.0170   85.6730   53.6430 O.2   194  LEU194     -0.2718
     41  CB        49.0380   84.9750   51.6940 C.3   194  LEU194      0.0284
     42  CG        48.6160   85.9250   50.5700 C.3   194  LEU194      0.0019
     43  CD1       49.7560   86.8770   50.2540 C.3   194  LEU194      0.0001
     44  CD2       48.2300   85.1210   49.3350 C.3   194  LEU194      0.0001
     45  N         48.2550   87.5020   54.0960 N.am  195  TYR195     -0.1976
     46  CA        47.1580   88.2480   54.6990 C.3   195  TYR195      0.1639
     47  C         46.7140   87.5080   55.9560 C.2   195  TYR195      0.2290
     48  O         47.5420   87.1680   56.8020 O.2   195  TYR195     -0.2864
     49  CB        45.9960   88.3840   53.7070 C.3   195  TYR195      0.0560
     50  CG        46.3760   89.1180   52.4370 C.ar  195  TYR195     -0.0198
     51  CD1       46.0860   88.5820   51.1820 C.ar  195  TYR195     -0.0009
     52  CD2       47.0530   90.3340   52.4900 C.ar  195  TYR195     -0.0009
     53  CE1       46.4670   89.2370   50.0090 C.ar  195  TYR195      0.0417
     54  CE2       47.4380   91.0000   51.3270 C.ar  195  TYR195      0.0417
     55  CZ        47.1440   90.4460   50.0910 C.ar  195  TYR195      0.1957
     56  OH        47.5400   91.0950   48.9420 O.3   195  TYR195     -0.2866
     57  N         44.9250   84.6470   55.7340 N.3   197  LEU197     -0.1245
     58  CA        44.5880   83.3120   55.2500 C.3   197  LEU197      0.1561
     59  C         45.4320   82.2460   55.9340 C.2   197  LEU197      0.2260
     60  O         46.6520   82.3860   56.0470 O.2   197  LEU197     -0.2867
     61  CB        44.7970   83.2380   53.7340 C.3   197  LEU197      0.0270
     62  CG        43.9510   84.1790   52.8680 C.3   197  LEU197      0.0019
     63  CD1       44.4390   84.1450   51.4300 C.3   197  LEU197      0.0001
     64  CD2       42.4910   83.7730   52.9480 C.3   197  LEU197      0.0001
     65  N         45.0050   76.5940   36.6560 N.3   227  ARG227     -0.1245
     66  CA        45.6950   77.8360   36.9760 C.3   227  ARG227      0.1563
     67  C         46.0300   77.7820   38.4560 C.2   227  ARG227      0.2260
     68  O         45.1360   77.8380   39.3020 O.2   227  ARG227     -0.2867
     69  CB        44.8460   79.0830   36.7280 C.3   227  ARG227      0.0307
     70  CG        45.7320   80.3270   36.7250 C.3   227  ARG227      0.0489
     71  CD        45.1640   81.5540   37.4180 C.3   227  ARG227      0.2205
     72  NE        45.0670   81.4360   38.8690 N.pl3 227  ARG227     -0.0865
     73  CZ        45.1170   82.4700   39.7090 C.cat 227  ARG227      0.5346
     74  NH1       45.2720   83.7040   39.2480 N.pl3 227  ARG227      0.1354
     75  NH2       45.0000   82.2740   41.0150 N.pl3 227  ARG227      0.1354
     76  N         47.0920   79.1330   41.8840 N.3   229  ASP229     -0.1225
     77  CA        47.0190   80.4040   42.5850 C.3   229  ASP229      0.1805
     78  C         48.2000   80.6300   43.5260 C.2   229  ASP229      0.2597
     79  O         48.6580   79.7060   44.1980 O.2   229  ASP229     -0.2718
     80  CB        45.7230   80.4720   43.3850 C.3   229  ASP229      0.1424
     81  CG        45.6010   81.7510   44.1720 C.2   229  ASP229      0.3668
     82  OD1       45.5760   82.8230   43.5400 O.co2 229  ASP229     -0.2456
     83  OD2       45.5360   81.6880   45.4170 O.co2 229  ASP229     -0.2456
     84  N         48.6890   81.8660   43.5630 N.am  230  ALA230     -0.1979
     85  CA        49.7840   82.2500   44.4530 C.3   230  ALA230      0.1597
     86  C         50.9460   81.2580   44.5160 C.2   230  ALA230      0.2287
     87  O         51.3640   80.8600   45.6020 O.2   230  ALA230     -0.2864
     88  CB        49.2360   82.4900   45.8600 C.3   230  ALA230      0.0319
     89  N         50.2610   81.7050   39.0800 N.3   257  GLU257     -0.1245
     90  CA        50.2740   83.1470   39.2330 C.3   257  GLU257      0.1567
     91  C         51.4520   83.6330   40.0660 C.2   257  GLU257      0.2260
     92  O         51.5090   83.3910   41.2730 O.2   257  GLU257     -0.2867
     93  CB        48.9890   83.6280   39.9010 C.3   257  GLU257      0.0388
     94  CG        49.0450   85.1060   40.2350 C.3   257  GLU257      0.1160
     95  CD        48.3670   85.4420   41.5410 C.2   257  GLU257      0.3649
     96  OE1       48.5230   84.6680   42.5100 O.co2 257  GLU257     -0.2457
     97  OE2       47.6950   86.4910   41.6010 O.co2 257  GLU257     -0.2457
     98  N         52.8010   87.1060   40.7570 N.3   259  PHE259     -0.1241
     99  CA        52.5920   88.5360   40.6100 C.3   259  PHE259      0.1605
    100  C         53.8780   89.3500   40.4980 C.2   259  PHE259      0.2264
    101  O         54.7880   89.2210   41.3190 O.2   259  PHE259     -0.2867
    102  CB        51.7520   89.0480   41.7830 C.3   259  PHE259      0.0534
    103  CG        50.9360   90.2680   41.4610 C.ar  259  PHE259     -0.0203
    104  CD1       51.5510   91.4890   41.2060 C.ar  259  PHE259     -0.0042
    105  CD2       49.5450   90.1920   41.4060 C.ar  259  PHE259     -0.0042
    106  CE1       50.7940   92.6200   40.9020 C.ar  259  PHE259     -0.0003
    107  CE2       48.7780   91.3160   41.1030 C.ar  259  PHE259     -0.0003
    108  CZ        49.4040   92.5310   40.8500 C.ar  259  PHE259     -0.0000
    109  N         41.2570   90.1580   37.7320 N.3   327  HIS327     -0.1226
    110  CA        40.5140   90.4190   38.9610 C.3   327  HIS327      0.1752
    111  C         41.3090   91.0930   40.0860 C.2   327  HIS327      0.2596
    112  O         40.7380   91.4590   41.1140 O.2   327  HIS327     -0.2718
    113  CB        39.9230   89.1070   39.4720 C.3   327  HIS327      0.0759
    114  CG        40.9460   88.0420   39.7100 C.ar  327  HIS327      0.0818
    115  ND1       41.8140   87.6120   38.7260 N.ar  327  HIS327     -0.2268
    116  CD2       41.2570   87.3320   40.8200 C.ar  327  HIS327      0.1154
    117  CE1       42.6130   86.6860   39.2220 C.ar  327  HIS327      0.1986
    118  NE2       42.2970   86.4970   40.4920 N.ar  327  HIS327     -0.2212
    119  N         42.6180   91.2500   39.9020 N.am  328  ASP328     -0.1974
    120  CA        43.4540   91.8910   40.9180 C.3   328  ASP328      0.1709
    121  C         44.0090   93.2340   40.4500 C.2   328  ASP328      0.2293
    122  O         44.8720   93.8140   41.1060 O.2   328  ASP328     -0.2864
    123  CB        44.6280   90.9880   41.3160 C.3   328  ASP328      0.1436
    124  CG        44.1840   89.7050   41.9980 C.2   328  ASP328      0.3671
    125  OD1       43.2550   89.7500   42.8310 O.co2 328  ASP328     -0.2456
    126  OD2       44.7830   88.6480   41.7110 O.co2 328  ASP328     -0.2456
    127  N         35.1670   93.6180   39.4920 N.3   375  ARG375     -0.1245
    128  CA        34.4660   92.3410   39.4290 C.3   375  ARG375      0.1563
    129  C         32.9470   92.5000   39.3770 C.2   375  ARG375      0.2260
    130  O         32.2110   91.7140   39.9770 O.2   375  ARG375     -0.2867
    131  CB        34.8510   91.4880   40.6350 C.3   375  ARG375      0.0307
    132  CG        36.3480   91.3490   40.8220 C.3   375  ARG375      0.0489
    133  CD        36.6620   90.5930   42.0890 C.3   375  ARG375      0.2205
    134  NE        38.0940   90.5480   42.3650 N.pl3 375  ARG375     -0.0865
    135  CZ        38.6320   89.8580   43.3650 C.cat 375  ARG375      0.5346
    136  NH1       37.8540   89.1550   44.1790 N.pl3 375  ARG375      0.1354
    137  NH2       39.9450   89.8690   43.5540 N.pl3 375  ARG375      0.1354
@<TRIPOS>BOND
     1    65    66    1
     2    70    69    1
     3    70    71    1
     4    69    66    1
     5    66    67    1
     6    71    72    1
     7   109   110    1
     8    67    68    2
     9   115   117   ar
    10   115   114   ar
    11    72    73    2
    12   110   113    1
    13   110   111    1
    14    89    90    1
    15   117   118   ar
    16    90    93    1
    17    90    91    1
    18    74    73    1
    19   129   128    1
    20   129   130    2
    21   128   127    1
    22   128   131    1
    23   113   114    1
    24    73    75    1
    25   114   116   ar
    26    93    94    1
    27   119   111   am
    28   119   120    1
    29    91    92    2
    30   111   112    2
    31    94    95    1
    32   121   120    1
    33   121   122    2
    34   118   116   ar
    35   100    99    1
    36   100   101    2
    37    99    98    1
    38    99   102    1
    39   131   132    1
    40   132   133    1
    41   108   106   ar
    42   108   107   ar
    43   106   104   ar
    44   120   123    1
    45   107   105   ar
    46   104   103   ar
    47    12    11    1
    48   123   124    1
    49   105   103   ar
    50   103   102    1
    51    95    97   ar
    52    95    96   ar
    53   126   124   ar
    54    76    77    1
    55   124   125   ar
    56   133   134    1
    57   134   135    2
    58    11     9   ar
    59    11    10   ar
    60    77    80    1
    61    77    78    1
    62     9     7   ar
    63    10     8   ar
    64   135   137    1
    65   135   136    1
    66    80    81    1
    67    78    84   am
    68    78    79    2
    69    82    81   ar
    70    84    85    1
    71    81    83   ar
    72    85    86    1
    73    85    88    1
    74    86    87    2
    75     7     6   ar
    76     8     6   ar
    77     6     5    1
    78     1     2    1
    79     5     2    1
    80     2     3    1
    81     3     4    2
    82     3    13   am
    83    56    55    1
    84    35    36   ar
    85    35    33   ar
    86    13    14    1
    87    44    42    1
    88    36    34   ar
    89    33    32   ar
    90    53    55   ar
    91    53    51   ar
    92    55    54   ar
    93    43    42    1
    94    14    15    1
    95    14    17    1
    96    42    41    1
    97    34    32   ar
    98    15    16    2
    99    27    28    1
   100    30    29    2
   101    32    31    1
   102    19    21   ar
   103    19    18   ar
   104    51    50   ar
   105    21    22   ar
   106    18    17    1
   107    18    20   ar
   108    54    52   ar
   109    63    62    1
   110    22    20   ar
   111    22    24   ar
   112    20    23   ar
   113    41    38    1
   114    24    26   ar
   115    29    28    1
   116    28    31    1
   117    23    25   ar
   118    26    25   ar
   119    50    52   ar
   120    50    49    1
   121    62    64    1
   122    62    61    1
   123    38    39    1
   124    38    37    1
   125    39    40    2
   126    39    45   am
   127    49    46    1
   128    61    58    1
   129    45    46    1
   130    46    47    1
   131    58    57    1
   132    58    59    1
   133    59    60    2
   134    47    48    2
