@<TRIPOS>MOLECULE
tmp/1kcsB00.pdb
 113 112 0 0 0
SMALL
GASTEIGER

@<TRIPOS>ATOM
      1  N          4.2210  -12.7370   -6.3750 N.3    32  ASP32      -0.1225
      2  CA         3.4650  -11.5070   -6.2720 C.3    32  ASP32       0.1805
      3  C          4.2060  -10.6200   -5.2700 C.2    32  ASP32       0.2598
      4  O          5.1650  -11.0720   -4.6450 O.2    32  ASP32      -0.2718
      5  CB         2.0560  -11.8820   -5.7880 C.3    32  ASP32       0.1424
      6  CG         1.1180  -10.7060   -5.7150 C.2    32  ASP32       0.3668
      7  OD1        1.1830   -9.8130   -6.5890 O.co2  32  ASP32      -0.2456
      8  OD2        0.2940  -10.6950   -4.7810 O.co2  32  ASP32      -0.2456
      9  N          3.7870   -9.3610   -5.1440 N.am   33  TYR33      -0.1962
     10  CA         4.3940   -8.4030   -4.2100 C.3    33  TYR33       0.1771
     11  C          5.6380   -7.6520   -4.6730 C.2    33  TYR33       0.2619
     12  O          6.2750   -8.0050   -5.6650 O.2    33  TYR33      -0.2715
     13  CB         4.7070   -9.0840   -2.8710 C.3    33  TYR33       0.0574
     14  CG         3.4670   -9.5270   -2.1460 C.ar   33  TYR33      -0.0198
     15  CD1        2.4930   -8.6000   -1.7900 C.ar   33  TYR33      -0.0009
     16  CD2        3.2400  -10.8690   -1.8610 C.ar   33  TYR33      -0.0009
     17  CE1        1.3240   -8.9850   -1.1760 C.ar   33  TYR33       0.0417
     18  CE2        2.0650  -11.2720   -1.2450 C.ar   33  TYR33       0.0417
     19  CZ         1.1070  -10.3130   -0.9050 C.ar   33  TYR33       0.1957
     20  OH        -0.0700  -10.6680   -0.2870 O.3    33  TYR33      -0.2866
     21  N          5.9670   -6.5990   -3.9250 N.am   34  ALA34      -0.1977
     22  CA         7.1360   -5.7750   -4.1970 C.3    34  ALA34       0.1597
     23  C          8.1590   -6.1430   -3.1600 C.2    34  ALA34       0.2287
     24  O          7.8270   -6.3000   -1.9830 O.2    34  ALA34      -0.2864
     25  CB         6.7970   -4.3040   -4.0740 C.3    34  ALA34       0.0319
     26  N         11.2290   -4.8090   -1.3390 N.3    36  ASN36      -0.1240
     27  CA        11.8840   -3.5540   -0.9640 C.3    36  ASN36       0.1653
     28  C         13.1150   -3.5360   -0.0950 C.2    36  ASN36       0.2266
     29  O         13.4360   -4.4760    0.6350 O.2    36  ASN36      -0.2867
     30  CB        10.8620   -2.6540   -0.2730 C.3    36  ASN36       0.1155
     31  CG         9.5950   -2.5050   -1.0670 C.2    36  ASN36       0.2627
     32  OD1        9.4560   -1.5760   -1.8540 O.2    36  ASN36      -0.2716
     33  ND2        8.6640   -3.4350   -0.8820 N.am   36  ASN36      -0.0877
     34  N         12.8320    4.9250    2.2200 N.3    48  TRP48      -0.1241
     35  CA        12.5420    3.8570    1.2710 C.3    48  TRP48       0.1605
     36  C         13.6020    3.9800    0.1740 C.2    48  TRP48       0.2264
     37  O         13.7410    5.0380   -0.4290 O.2    48  TRP48      -0.2867
     38  CB        11.1530    4.0500    0.6730 C.3    48  TRP48       0.0550
     39  CG        10.8920    3.1580   -0.4910 C.ar   48  TRP48       0.0003
     40  CD1       10.5350    1.8430   -0.4530 C.ar   48  TRP48       0.0946
     41  CD2       10.9350    3.5240   -1.8790 C.ar   48  TRP48       0.0152
     42  NE1       10.3430    1.3690   -1.7300 N.ar   48  TRP48      -0.2442
     43  CE2       10.5810    2.3780   -2.6240 C.ar   48  TRP48       0.0810
     44  CE3       11.2350    4.7100   -2.5610 C.ar   48  TRP48       0.0012
     45  CZ2       10.5120    2.3810   -4.0170 C.ar   48  TRP48       0.0191
     46  CZ3       11.1680    4.7140   -3.9420 C.ar   48  TRP48       0.0001
     47  CH2       10.8070    3.5550   -4.6580 C.ar   48  TRP48       0.0015
     48  N         12.6000   -0.8620   -4.7740 N.3    51  TYR51      -0.1241
     49  CA        12.1490   -2.2380   -4.7630 C.3    51  TYR51       0.1605
     50  C         12.2540   -2.8500   -6.1470 C.2    51  TYR51       0.2264
     51  O         12.6140   -2.1840   -7.1190 O.2    51  TYR51      -0.2867
     52  CB        10.6970   -2.3200   -4.2650 C.3    51  TYR51       0.0534
     53  CG         9.6690   -1.6370   -5.1550 C.ar   51  TYR51      -0.0201
     54  CD1        9.4810   -2.0290   -6.4910 C.ar   51  TYR51      -0.0009
     55  CD2        8.8640   -0.6200   -4.6520 C.ar   51  TYR51      -0.0009
     56  CE1        8.5080   -1.4180   -7.3020 C.ar   51  TYR51       0.0417
     57  CE2        7.9010   -0.0060   -5.4370 C.ar   51  TYR51       0.0417
     58  CZ         7.7230   -0.4020   -6.7630 C.ar   51  TYR51       0.1957
     59  OH         6.7760    0.2580   -7.5300 O.3    51  TYR51      -0.2866
     60  N          9.8320   -5.5540   -8.4370 N.3    53  SER53      -0.1202
     61  CA         8.5420   -6.2340   -8.4760 C.3    53  SER53       0.2020
     62  C          8.7320   -7.6980   -8.8340 C.2    53  SER53       0.2618
     63  O          9.7360   -8.0850   -9.4390 O.2    53  SER53      -0.2717
     64  CB         7.6340   -5.5910   -9.5200 C.3    53  SER53       0.2103
     65  OG         8.1440   -5.8390  -10.8200 O.3    53  SER53      -0.2182
     66  N          7.7480   -8.5060   -8.4750 N.am   54  TYR54      -0.1975
     67  CA         7.8010   -9.9270   -8.7610 C.3    54  TYR54       0.1639
     68  C          8.0770  -10.2400  -10.2370 C.2    54  TYR54       0.2290
     69  O          8.4520  -11.3640  -10.5660 O.2    54  TYR54      -0.2864
     70  CB         6.4920  -10.5870   -8.3130 C.3    54  TYR54       0.0560
     71  CG         5.2660  -10.0610   -9.0090 C.ar   54  TYR54      -0.0198
     72  CD1        4.9400  -10.4910  -10.2940 C.ar   54  TYR54      -0.0009
     73  CD2        4.4560   -9.0950   -8.4050 C.ar   54  TYR54      -0.0009
     74  CE1        3.8450   -9.9700  -10.9680 C.ar   54  TYR54       0.0417
     75  CE2        3.3540   -8.5660   -9.0680 C.ar   54  TYR54       0.0417
     76  CZ         3.0560   -9.0070  -10.3550 C.ar   54  TYR54       0.1957
     77  OH         1.9880   -8.4850  -11.0500 O.3    54  TYR54      -0.2866
     78  N         11.8950   -0.0150   -9.0900 N.3    59  SER59      -0.1217
     79  CA        11.5720    1.3540   -8.8260 C.3    59  SER59       0.1889
     80  C         12.5330    1.8530   -7.7550 C.2    59  SER59       0.2288
     81  O         12.8350    1.1780   -6.7720 O.2    59  SER59      -0.2866
     82  CB        10.0990    1.5190   -8.4390 C.3    59  SER59       0.2089
     83  OG         9.9580    1.8080   -7.0630 O.3    59  SER59      -0.2183
     84  N          6.5280   -5.5590   -0.0290 N.3    99  GLY99      -0.1210
     85  CA         5.5460   -4.5130   -0.1730 C.3    99  GLY99       0.1956
     86  C          4.2330   -5.1220   -0.6090 C.2    99  GLY99       0.2612
     87  O          4.2100   -6.1470   -1.2890 O.2    99  GLY99      -0.2717
     88  N          3.1390   -4.4930   -0.2010 N.am  100  GLY100     -0.1942
     89  CA         1.8110   -4.9550   -0.5570 C.3   100  GLY100      0.2014
     90  C          0.8280   -3.9490    0.0050 C.2   100  GLY100      0.2640
     91  O          0.5990   -2.8960   -0.5820 O.2   100  GLY100     -0.2714
     92  N          0.2760   -4.2960    1.1630 N.am  101  THR101     -0.1936
     93  CA        -0.6700   -3.4790    1.9140 C.3   101  THR101      0.2028
     94  C          0.2380   -2.7370    2.9100 C.2   101  THR101      0.2643
     95  O          0.1630   -2.8990    4.1250 O.2   101  THR101     -0.2714
     96  CB        -1.7160   -4.4290    2.5680 C.3   101  THR101      0.1808
     97  OG1       -3.0190   -4.0550    2.1140 O.3   101  THR101     -0.2208
     98  CG2       -1.6560   -4.3890    4.0790 C.3   101  THR101      0.0379
     99  N          1.1180   -1.9130    2.3560 N.am  102  GLY102     -0.1939
    100  CA         2.0970   -1.2370    3.1780 C.3   102  GLY102      0.2014
    101  C          3.2220   -2.2510    3.2450 C.2   102  GLY102      0.2638
    102  O          3.3680   -3.0720    2.3390 O.2   102  GLY102     -0.2714
    103  N          3.9960   -2.2180    4.3230 N.am  103  PHE103     -0.1973
    104  CA         5.0820   -3.1690    4.5060 C.3   103  PHE103      0.1639
    105  C          4.7780   -4.0500    5.7090 C.2   103  PHE103      0.2290
    106  O          5.2750   -3.7900    6.8090 O.2   103  PHE103     -0.2864
    107  CB         6.4020   -2.4470    4.7620 C.3   103  PHE103      0.0560
    108  CG         6.8190   -1.5440    3.6490 C.ar  103  PHE103     -0.0200
    109  CD1        6.6830   -0.1700    3.7670 C.ar  103  PHE103     -0.0042
    110  CD2        7.3350   -2.0730    2.4690 C.ar  103  PHE103     -0.0042
    111  CE1        7.0570    0.6650    2.7220 C.ar  103  PHE103     -0.0003
    112  CE2        7.7100   -1.2510    1.4220 C.ar  103  PHE103     -0.0003
    113  CZ         7.5710    0.1220    1.5440 C.ar  103  PHE103     -0.0000
@<TRIPOS>BOND
     1    77    76    1
     2    74    76   ar
     3    74    72   ar
     4    65    64    1
     5    69    68    2
     6    76    75   ar
     7    72    71   ar
     8    68    67    1
     9    64    61    1
    10    63    62    2
    11    78    79    1
    12    75    73   ar
    13    71    73   ar
    14    71    70    1
    15    62    61    1
    16    62    66   am
    17    79    82    1
    18    79    80    1
    19    67    66    1
    20    67    70    1
    21    61    60    1
    22    82    83    1
    23    80    81    2
    24    59    58    1
    25    56    58   ar
    26    56    54   ar
    27    51    50    2
    28    58    57   ar
    29     7     6   ar
    30    54    53   ar
    31     1     2    1
    32     2     5    1
    33     2     3    1
    34    50    49    1
    35     5     6    1
    36     6     8   ar
    37    12    11    2
    38    57    55   ar
    39     3     9   am
    40     3     4    2
    41    53    55   ar
    42    53    52    1
    43     9    10    1
    44    48    49    1
    45    49    52    1
    46    11    10    1
    47    11    21   am
    48    47    45   ar
    49    47    46   ar
    50    10    13    1
    51    22    25    1
    52    22    21    1
    53    22    23    1
    54    45    43   ar
    55    46    44   ar
    56    23    24    2
    57    13    14    1
    58    43    41   ar
    59    43    42   ar
    60    44    41   ar
    61    14    16   ar
    62    14    15   ar
    63    41    39   ar
    64    16    18   ar
    65    32    31    2
    66    15    17   ar
    67    42    40   ar
    68    26    27    1
    69    87    86    2
    70    18    19   ar
    71    17    19   ar
    72    31    33   am
    73    31    30    1
    74    27    30    1
    75    27    28    1
    76    19    20    1
    77    86    88   am
    78    86    85    1
    79    91    90    2
    80    89    88    1
    81    89    90    1
    82    39    40   ar
    83    39    38    1
    84    37    36    2
    85    85    84    1
    86    28    29    2
    87    90    92   am
    88    36    35    1
    89    38    35    1
    90    92    93    1
    91    35    34    1
    92   112   113   ar
    93   112   110   ar
    94   113   111   ar
    95    93    96    1
    96    93    94    1
    97    97    96    1
    98   102   101    2
    99    99    94   am
   100    99   100    1
   101   110   108   ar
   102    96    98    1
   103   111   109   ar
   104    94    95    2
   105   100   101    1
   106   101   103   am
   107   108   109   ar
   108   108   107    1
   109   103   104    1
   110   104   107    1
   111   104   105    1
   112   105   106    2
