@<TRIPOS>MOLECULE
tmp/1kdkA00.pdb
 197 188 0 0 0
SMALL
GASTEIGER

@<TRIPOS>ATOM
      1  N         26.4520   10.4490   25.0050 N.3    29  THR29      -0.1203
      2  CA        25.7210   10.3390   26.2710 C.3    29  THR29       0.1994
      3  C         26.7660   10.0160   27.3370 C.2    29  THR29       0.2619
      4  O         26.6490    9.0390   28.0850 O.2    29  THR29      -0.2717
      5  CB        24.6320    9.2430   26.2240 C.3    29  THR29       0.1784
      6  OG1       25.3150    8.0430   25.8120 O.3    29  THR29      -0.2211
      7  CG2       23.5000    9.5630   25.2450 C.3    29  THR29       0.0376
      8  N         27.6950   10.9330   27.5070 N.am   30  SER30      -0.1937
      9  CA        28.7420   10.8170   28.5140 C.3    30  SER30       0.2055
     10  C         29.2480   12.2050   28.9160 C.2    30  SER30       0.2643
     11  O         28.9900   13.2730   28.3130 O.2    30  SER30      -0.2714
     12  CB        29.8950    9.9670   27.9830 C.3    30  SER30       0.2130
     13  OG        30.6360   10.7300   27.0640 O.3    30  SER30      -0.2179
     14  N         29.8180   12.2090   30.1210 N.am   31  SER31      -0.1949
     15  CA        30.3610   13.4240   30.7110 C.3    31  SER31       0.1924
     16  C         31.6750   13.1270   31.4060 C.2    31  SER31       0.2314
     17  O         31.9010   12.0550   31.9660 O.2    31  SER31      -0.2863
     18  CB        29.4350   14.2270   31.6170 C.3    31  SER31       0.2116
     19  OG        28.1430   14.5660   31.2110 O.3    31  SER31      -0.2180
     20  N         27.8830   16.8910   40.6950 N.3    45  PHE45      -0.1241
     21  CA        26.9240   17.4050   39.7120 C.3    45  PHE45       0.1605
     22  C         25.6100   16.6700   39.8270 C.2    45  PHE45       0.2264
     23  O         25.4540   15.6000   40.4250 O.2    45  PHE45      -0.2867
     24  CB        27.3930   17.3830   38.2410 C.3    45  PHE45       0.0534
     25  CG        27.2740   16.0610   37.5220 C.ar   45  PHE45      -0.0203
     26  CD1       26.1800   15.6330   36.7780 C.ar   45  PHE45      -0.0042
     27  CD2       28.3670   15.2300   37.5780 C.ar   45  PHE45      -0.0042
     28  CE1       26.2000   14.3930   36.1630 C.ar   45  PHE45      -0.0003
     29  CE2       28.4430   13.9640   36.9730 C.ar   45  PHE45      -0.0003
     30  CZ        27.3200   13.5780   36.2340 C.ar   45  PHE45      -0.0000
     31  N         21.7740   15.9640   37.6120 N.3    47  GLY47      -0.1210
     32  CA        21.1570   16.0790   36.2440 C.3    47  GLY47       0.1956
     33  C         19.7260   15.6240   36.3840 C.2    47  GLY47       0.2612
     34  O         19.4000   14.7140   37.1540 O.2    47  GLY47      -0.2717
     35  N         18.8570   16.1740   35.5080 N.am   48  ASP48      -0.1959
     36  CA        17.4720   15.7090   35.5290 C.3    48  ASP48       0.1840
     37  C         16.7280   16.0190   34.2110 C.2    48  ASP48       0.2622
     38  O         17.2810   16.6590   33.3400 O.2    48  ASP48      -0.2715
     39  CB        16.6950   16.2840   36.6990 C.3    48  ASP48       0.1450
     40  CG        16.2380   17.7460   36.6620 C.2    48  ASP48       0.3671
     41  OD1       16.1110   18.2830   35.5430 O.co2  48  ASP48      -0.2456
     42  OD2       15.8970   18.2960   37.7320 O.co2  48  ASP48      -0.2456
     43  N         15.6030   15.3460   34.1010 N.am   49  THR49      -0.1951
     44  CA        14.6350   15.8360   33.1080 C.3    49  THR49       0.1897
     45  C         13.4600   16.3510   33.9250 C.2    49  THR49       0.2313
     46  O         12.6300   17.1890   33.5530 O.2    49  THR49      -0.2863
     47  CB        14.1410   14.8560   32.0610 C.3    49  THR49       0.1794
     48  OG1       13.1950   13.9360   32.6470 O.3    49  THR49      -0.2208
     49  CG2       15.2470   14.1770   31.2880 C.3    49  THR49       0.0378
     50  N         12.6810   12.0690   37.6300 N.3    54  ASP54      -0.1225
     51  CA        13.7070   11.5510   36.7140 C.3    54  ASP54       0.1805
     52  C         14.9810   12.3470   36.9490 C.2    54  ASP54       0.2598
     53  O         15.2530   13.3550   36.2830 O.2    54  ASP54      -0.2718
     54  CB        13.2450   11.8400   35.2780 C.3    54  ASP54       0.1424
     55  CG        14.0760   11.1670   34.2300 C.2    54  ASP54       0.3668
     56  OD1       14.4870    9.9940   34.3910 O.co2  54  ASP54      -0.2456
     57  OD2       14.4450   11.8460   33.2280 O.co2  54  ASP54      -0.2456
     58  N         15.8170   11.9240   37.9020 N.am   55  TRP55      -0.1962
     59  CA        16.9730   12.7170   38.2980 C.3    55  TRP55       0.1771
     60  C         18.1210   11.8020   38.7560 C.2    55  TRP55       0.2619
     61  O         18.0240   10.5760   38.9730 O.2    55  TRP55      -0.2715
     62  CB        16.5490   13.7150   39.3970 C.3    55  TRP55       0.0590
     63  CG        16.1180   13.1420   40.7130 C.ar   55  TRP55       0.0006
     64  CD1       14.7980   12.9370   41.0640 C.ar   55  TRP55       0.0946
     65  CD2       16.9210   12.6610   41.7940 C.ar   55  TRP55       0.0152
     66  NE1       14.7150   12.4150   42.3580 N.ar   55  TRP55      -0.2442
     67  CE2       16.0190   12.2340   42.7750 C.ar   55  TRP55       0.0810
     68  CE3       18.2990   12.6150   42.0410 C.ar   55  TRP55       0.0012
     69  CZ2       16.4990   11.6310   43.9780 C.ar   55  TRP55       0.0191
     70  CZ3       18.7970   12.0680   43.2260 C.ar   55  TRP55       0.0001
     71  CH2       17.8650   11.6480   44.1870 C.ar   55  TRP55       0.0015
     72  N         19.2910   12.4180   38.8040 N.am   56  PHE56      -0.1974
     73  CA        20.5480   11.7950   39.0790 C.3    56  PHE56       0.1639
     74  C         21.4790   12.7440   39.8400 C.2    56  PHE56       0.2290
     75  O         21.6220   13.9270   39.4750 O.2    56  PHE56      -0.2864
     76  CB        21.2730   11.4510   37.7700 C.3    56  PHE56       0.0560
     77  CG        22.6850   10.9160   37.8070 C.ar   56  PHE56      -0.0200
     78  CD1       22.8450    9.5140   37.8160 C.ar   56  PHE56      -0.0042
     79  CD2       23.7980   11.7400   37.8710 C.ar   56  PHE56      -0.0042
     80  CE1       24.1480    8.9930   37.7420 C.ar   56  PHE56      -0.0003
     81  CE2       25.0810   11.1780   37.8720 C.ar   56  PHE56      -0.0003
     82  CZ        25.2780    9.7950   37.8520 C.ar   56  PHE56      -0.0000
     83  N         19.9810    8.0260   42.2130 N.3    69  LEU69      -0.1245
     84  CA        19.2920    8.1380   40.8960 C.3    69  LEU69       0.1561
     85  C         17.8790    7.7450   41.2240 C.2    69  LEU69       0.2260
     86  O         17.5830    6.8640   42.0640 O.2    69  LEU69      -0.2867
     87  CB        20.0280    7.0850   40.0550 C.3    69  LEU69       0.0270
     88  CG        19.6910    6.5100   38.7090 C.3    69  LEU69       0.0019
     89  CD1       20.9710    5.8990   38.1510 C.3    69  LEU69       0.0001
     90  CD2       18.5390    5.5160   38.8170 C.3    69  LEU69       0.0001
     91  N         14.3460    7.2330   38.7430 N.3    71  ASN71      -0.1240
     92  CA        13.7070    7.3740   37.4320 C.3    71  ASN71       0.1653
     93  C         12.6510    6.2690   37.3860 C.2    71  ASN71       0.2266
     94  O         12.4110    5.6090   38.3900 O.2    71  ASN71      -0.2867
     95  CB        14.6880    7.4070   36.2540 C.3    71  ASN71       0.1155
     96  CG        15.5520    6.2210   35.9440 C.2    71  ASN71       0.2627
     97  OD1       16.5850    6.3040   35.2750 O.2    71  ASN71      -0.2716
     98  ND2       15.0520    5.0970   36.4070 N.am   71  ASN71      -0.0877
     99  N         12.7780    3.4380   35.9220 N.3    73  TRP73      -0.1241
    100  CA        13.3360    2.0970   36.0120 C.3    73  TRP73       0.1605
    101  C         14.0220    1.7530   37.3280 C.2    73  TRP73       0.2264
    102  O         14.1760    0.5550   37.6460 O.2    73  TRP73      -0.2867
    103  CB        14.4110    1.9080   34.9220 C.3    73  TRP73       0.0550
    104  CG        13.7400    2.0480   33.5840 C.ar   73  TRP73       0.0003
    105  CD1       12.9860    1.1180   32.9190 C.ar   73  TRP73       0.0946
    106  CD2       13.6110    3.2770   32.8590 C.ar   73  TRP73       0.0152
    107  NE1       12.5110    1.6650   31.7410 N.ar   73  TRP73      -0.2442
    108  CE2       12.8870    2.9840   31.6820 C.ar   73  TRP73       0.0810
    109  CE3       14.0900    4.5700   33.0640 C.ar   73  TRP73       0.0012
    110  CZ2       12.5590    3.9670   30.7460 C.ar   73  TRP73       0.0191
    111  CZ3       13.8170    5.5430   32.1100 C.ar   73  TRP73       0.0001
    112  CH2       13.0580    5.2240   30.9720 C.ar   73  TRP73       0.0015
    113  N         31.3780    9.7160   33.4770 N.3    94  VAL94      -0.1231
    114  CA        30.1000    9.0680   33.7750 C.3    94  VAL94       0.1692
    115  C         29.4570    8.8610   32.4080 C.2    94  VAL94       0.2592
    116  O         29.3270    9.8500   31.6670 O.2    94  VAL94      -0.2718
    117  CB        29.1790    9.9700   34.6020 C.3    94  VAL94       0.0266
    118  CG1       27.8260    9.2940   34.8400 C.3    94  VAL94       0.0020
    119  CG2       29.7370   10.3260   35.9630 C.3    94  VAL94       0.0020
    120  N         29.1200    7.6060   32.1060 N.am   95  LYS95      -0.1966
    121  CA        28.6810    7.3820   30.7130 C.3    95  LYS95       0.1727
    122  C         27.4470    6.5010   30.7280 C.2    95  LYS95       0.2612
    123  O         27.3480    5.6320   31.6140 O.2    95  LYS95      -0.2715
    124  CB        29.7560    6.6240   29.9490 C.3    95  LYS95       0.0311
    125  CG        31.2370    6.7870   30.0290 C.3    95  LYS95       0.0038
    126  CD        31.9690    5.8080   29.1100 C.3    95  LYS95       0.0206
    127  CE        33.4650    6.0710   29.2580 C.3    95  LYS95       0.1093
    128  NZ        34.1760    5.8040   27.9710 N.3    95  LYS95      -0.1314
    129  N         26.5900    6.7020   29.7230 N.am   96  MET96      -0.2030
    130  CA        25.4270    5.7970   29.6470 C.3    96  MET96       0.1291
    131  C         25.7580    4.8850   28.4800 C.3    96  MET96       0.2036
    132  O         25.9150    5.4770   27.4030 O.3    96  MET96      -0.2185
    133  CB        24.2120    6.6470   29.3470 C.3    96  MET96       0.0360
    134  CG        22.9560    6.5290   30.1600 C.3    96  MET96       0.0594
    135  SD        21.3920    6.6790   29.2670 S.3    96  MET96      -0.1393
    136  CE        21.9250    7.4370   27.7340 C.3    96  MET96       0.0692
    137  N         24.5380    2.7700   33.4440 N.3   101  VAL101     -0.1245
    138  CA        25.2950    3.9930   33.7200 C.3   101  VAL101      0.1561
    139  C         26.5930    3.5450   34.3490 C.2   101  VAL101      0.2260
    140  O         26.5410    2.7540   35.3170 O.2   101  VAL101     -0.2867
    141  CB        24.5130    4.9550   34.6510 C.3   101  VAL101      0.0252
    142  CG1       25.4870    6.0660   35.1090 C.3   101  VAL101      0.0019
    143  CG2       23.3160    5.5660   33.9390 C.3   101  VAL101      0.0019
    144  N         19.1560    0.5910   34.3540 N.3   116  VAL116     -0.1231
    145  CA        18.6660    1.8020   34.9700 C.3   116  VAL116      0.1692
    146  C         18.1180    2.8410   34.0060 C.2   116  VAL116      0.2592
    147  O         17.5570    3.8160   34.4770 O.2   116  VAL116     -0.2718
    148  CB        19.7530    2.5520   35.8220 C.3   116  VAL116      0.0266
    149  CG1       20.1100    1.6120   36.9590 C.3   116  VAL116      0.0020
    150  CG2       21.0300    2.9490   35.1380 C.3   116  VAL116      0.0020
    151  N         18.2420    2.5670   32.7110 N.am  117  SER117     -0.1952
    152  CA        17.7030    3.6780   31.8820 C.3   117  SER117      0.1924
    153  C         17.2760    3.2560   30.4910 C.2   117  SER117      0.2314
    154  O         18.0160    2.5160   29.8740 O.2   117  SER117     -0.2863
    155  CB        18.8440    4.6930   31.6800 C.3   117  SER117      0.2116
    156  OG        18.2880    5.7950   30.9430 O.3   117  SER117     -0.2180
    157  N         17.8830    7.8680   25.6890 N.3   120  LEU120     -0.1245
    158  CA        17.6600    9.3060   25.8440 C.3   120  LEU120      0.1561
    159  C         16.7480    9.7940   24.7210 C.2   120  LEU120      0.2260
    160  O         15.7090   10.3970   24.9980 O.2   120  LEU120     -0.2867
    161  CB        18.9630   10.0980   25.9470 C.3   120  LEU120      0.0270
    162  CG        19.7330    9.9360   27.2610 C.3   120  LEU120      0.0019
    163  CD1       21.0150   10.7480   27.3190 C.3   120  LEU120      0.0001
    164  CD2       18.8600   10.3000   28.4510 C.3   120  LEU120      0.0001
    165  N         13.0900    9.0130   25.2000 N.3   123  LYS123     -0.1245
    166  CA        12.5600    9.4140   26.4950 C.3   123  LYS123      0.1561
    167  C         11.6240   10.6120   26.4660 C.2   123  LYS123      0.2260
    168  O         11.5820   11.5000   25.6220 O.2   123  LYS123     -0.2867
    169  CB        13.7140    9.6060   27.4790 C.3   123  LYS123      0.0271
    170  CG        14.3290   10.9780   27.6430 C.3   123  LYS123      0.0035
    171  CD        15.2580   11.0330   28.8480 C.3   123  LYS123      0.0206
    172  CE        14.5140   10.9400   30.1700 C.3   123  LYS123      0.1093
    173  NZ        15.0460    9.8170   30.9860 N.3   123  LYS123     -0.1314
    174  N         17.1400   17.9440   29.0710 N.3   128  MET128     -0.1245
    175  CA        17.8950   17.4830   30.2820 C.3   128  MET128      0.1570
    176  C         18.6670   18.6400   30.8930 C.2   128  MET128      0.2261
    177  O         19.2840   19.4170   30.1410 O.2   128  MET128     -0.2867
    178  CB        18.8990   16.4110   29.8210 C.3   128  MET128      0.0387
    179  CG        19.7280   15.8750   31.0180 C.3   128  MET128      0.0595
    180  SD        20.4860   14.2930   30.5110 S.3   128  MET128     -0.1393
    181  CE        18.9880   13.3070   30.6660 C.3   128  MET128      0.0692
    182  N         21.7600   19.8290   33.4870 N.3   130  ILE130     -0.1245
    183  CA        22.9460   19.4400   34.2190 C.3   130  ILE130      0.1561
    184  C         23.4100   20.6160   35.0880 C.2   130  ILE130      0.2260
    185  O         23.6480   21.7540   34.5870 O.2   130  ILE130     -0.2867
    186  CB        24.0950   19.0300   33.2900 C.3   130  ILE130      0.0252
    187  CG1       23.7530   17.8020   32.4380 C.3   130  ILE130      0.0019
    188  CG2       25.3690   18.7460   34.0980 C.3   130  ILE130      0.0019
    189  CD1       23.5190   16.5510   33.2830 C.3   130  ILE130      0.0001
    190  N         27.7970   16.0050   28.3750 N.3   160  LEU160     -0.1245
    191  CA        26.9450   15.4530   27.3170 C.3   160  LEU160      0.1561
    192  C         27.4530   15.9360   25.9650 C.2   160  LEU160      0.2260
    193  O         28.6250   15.9230   25.6210 O.2   160  LEU160     -0.2867
    194  CB        25.4770   15.7900   27.5900 C.3   160  LEU160      0.0270
    195  CG        24.8210   15.2380   28.8500 C.3   160  LEU160      0.0019
    196  CD1       23.4940   15.9010   29.1570 C.3   160  LEU160      0.0001
    197  CD2       24.6600   13.7220   28.7750 C.3   160  LEU160      0.0001
@<TRIPOS>BOND
     1   159   160    2
     2   159   158    1
     3     1     2    1
     4   165   166    1
     5     7     5    1
     6   193   192    2
     7   168   167    2
     8   157   158    1
     9     6     5    1
    10   158   161    1
    11   161   162    1
    12   192   191    1
    13     5     2    1
    14     2     3    1
    15   167   166    1
    16   166   169    1
    17    13    12    1
    18   162   163    1
    19   162   164    1
    20   191   194    1
    21   191   190    1
    22     3     8   am
    23     3     4    2
    24   132   131    1
    25   169   170    1
    26     8     9    1
    27   194   195    1
    28   170   171    1
    29   136   135    1
    30   128   127    1
    31    12     9    1
    32    11    10    2
    33   131   130    1
    34     9    10    1
    35   197   195    1
    36   171   172    1
    37   195   196    1
    38    10    14   am
    39   174   175    1
    40   126   127    1
    41   126   125    1
    42   135   134    1
    43   133   130    1
    44   133   134    1
    45   130   129    1
    46   129   122   am
    47   178   175    1
    48   178   179    1
    49   154   153    2
    50   124   125    1
    51   124   121    1
    52    14    15    1
    53   177   176    2
    54   172   173    1
    55   175   176    1
    56   153   152    1
    57   180   181    1
    58   180   179    1
    59    15    16    1
    60    15    18    1
    61   121   122    1
    62   121   120    1
    63   122   123    2
    64   110   112   ar
    65   110   108   ar
    66   156   155    1
    67   112   111   ar
    68    19    18    1
    69    49    47    1
    70    16    17    2
    71   116   115    2
    72   155   152    1
    73   108   107   ar
    74   108   106   ar
    75   107   105   ar
    76   152   151    1
    77    47    48    1
    78    47    44    1
    79   120   115   am
    80   111   109   ar
    81   115   114    1
    82   187   189    1
    83   187   186    1
    84   151   146   am
    85   106   109   ar
    86   106   104   ar
    87   105   104   ar
    88    44    45    1
    89    44    43    1
    90    57    55   ar
    91   186   188    1
    92   186   183    1
    93    38    37    2
    94   137   138    1
    95   113   114    1
    96   182   183    1
    97    46    45    2
    98   104   103    1
    99   138   139    1
   100   138   141    1
   101   114   117    1
   102   143   141    1
   103   146   147    2
   104   146   145    1
   105    43    37   am
   106    37    36    1
   107   183   184    1
   108    55    56   ar
   109    55    54    1
   110   139   140    2
   111   144   145    1
   112   185   184    2
   113   117   118    1
   114   117   119    1
   115   141   142    1
   116   103   100    1
   117   145   148    1
   118   150   148    1
   119    97    96    2
   120    54    51    1
   121    35    36    1
   122    35    33   am
   123    36    39    1
   124    41    40   ar
   125   148   149    1
   126    99   100    1
   127    96    95    1
   128    96    98   am
   129   100   101    1
   130    28    30   ar
   131    28    26   ar
   132    30    29   ar
   133    32    33    1
   134    32    31    1
   135    95    92    1
   136    53    52    2
   137    33    34    2
   138    40    39    1
   139    40    42   ar
   140    51    52    1
   141    51    50    1
   142    26    25   ar
   143    52    58   am
   144    29    27   ar
   145   101   102    2
   146    93    92    1
   147    93    94    2
   148    92    91    1
   149    25    27   ar
   150    25    24    1
   151    80    78   ar
   152    80    82   ar
   153    76    77    1
   154    76    73    1
   155    77    78   ar
   156    77    79   ar
   157    82    81   ar
   158    79    81   ar
   159    58    59    1
   160    89    88    1
   161    24    21    1
   162    59    60    1
   163    59    62    1
   164    88    90    1
   165    88    87    1
   166    60    72   am
   167    60    61    2
   168    72    73    1
   169    73    74    1
   170    62    63    1
   171    75    74    2
   172    21    22    1
   173    21    20    1
   174    22    23    2
   175    87    84    1
   176    63    64   ar
   177    63    65   ar
   178    84    85    1
   179    84    83    1
   180    64    66   ar
   181    85    86    2
   182    65    68   ar
   183    65    67   ar
   184    68    70   ar
   185    66    67   ar
   186    67    69   ar
   187    70    71   ar
   188    69    71   ar
