@<TRIPOS>MOLECULE
tmp/1kdnB00.pdb
 158 151 0 0 0
SMALL
GASTEIGER

@<TRIPOS>ATOM
      1  N         37.9800   36.5470   20.3590 N.3    11  LYS11      -0.1245
      2  CA        36.5550   36.4900   20.6240 C.3    11  LYS11       0.1561
      3  C         36.2740   36.0930   22.0820 C.2    11  LYS11       0.2260
      4  O         37.1800   35.6550   22.8090 O.2    11  LYS11      -0.2867
      5  CB        35.9020   35.5300   19.6310 C.3    11  LYS11       0.0271
      6  CG        35.9670   35.9970   18.2160 C.3    11  LYS11       0.0035
      7  CD        35.3850   34.8970   17.3630 C.3    11  LYS11       0.0206
      8  CE        35.3820   35.2990   15.9410 C.3    11  LYS11       0.1093
      9  NZ        34.6930   34.3160   15.0670 N.3    11  LYS11      -0.1314
     10  N         30.4090   42.7170   11.3650 N.3    51  TYR51      -0.1241
     11  CA        30.0380   41.5610   10.5670 C.3    51  TYR51       0.1605
     12  C         28.9540   41.9040    9.5510 C.2    51  TYR51       0.2264
     13  O         28.2320   41.0210    9.0990 O.2    51  TYR51      -0.2867
     14  CB        29.5510   40.4370   11.4640 C.3    51  TYR51       0.0534
     15  CG        30.6660   39.7110   12.1600 C.ar   51  TYR51      -0.0201
     16  CD1       31.7050   39.1130   11.4150 C.ar   51  TYR51      -0.0009
     17  CD2       30.6900   39.5980   13.5450 C.ar   51  TYR51      -0.0009
     18  CE1       32.7310   38.4280   12.0200 C.ar   51  TYR51       0.0417
     19  CE2       31.7350   38.8950   14.1770 C.ar   51  TYR51       0.0417
     20  CZ        32.7500   38.3160   13.4030 C.ar   51  TYR51       0.1957
     21  OH        33.7970   37.6480   14.0150 O.3    51  TYR51      -0.2866
     22  N         28.8530   42.2920    6.3840 N.3    53  GLU53      -0.1231
     23  CA        28.7800   41.5200    5.1540 C.3    53  GLU53       0.1699
     24  C         27.9840   40.2250    5.3000 C.2    53  GLU53       0.2592
     25  O         27.5940   39.6140    4.3070 O.2    53  GLU53      -0.2718
     26  CB        30.1840   41.2040    4.6200 C.3    53  GLU53       0.0402
     27  CG        30.8460   40.0440    5.3260 C.3    53  GLU53       0.1161
     28  CD        32.3550   40.0030    5.1370 C.2    53  GLU53       0.3649
     29  OE1       33.0820   40.6810    5.8980 O.co2  53  GLU53      -0.2457
     30  OE2       32.8080   39.2750    4.2310 O.co2  53  GLU53      -0.2457
     31  N         27.7440   39.7920    6.5310 N.am   54  HIS54      -0.1976
     32  CA        27.0080   38.5430    6.7440 C.3    54  HIS54       0.1656
     33  C         25.5340   38.7920    7.1570 C.2    54  HIS54       0.2291
     34  O         24.8020   37.8360    7.3950 O.2    54  HIS54      -0.2864
     35  CB        27.6980   37.6770    7.8380 C.3    54  HIS54       0.0771
     36  CG        29.1730   37.4450    7.6160 C.ar   54  HIS54       0.0820
     37  ND1       29.6680   36.6750    6.5820 N.ar   54  HIS54      -0.2267
     38  CD2       30.2600   37.8820    8.3120 C.ar   54  HIS54       0.1154
     39  CE1       30.9900   36.6530    6.6530 C.ar   54  HIS54       0.1986
     40  NE2       31.3720   37.3730    7.6870 N.ar   54  HIS54      -0.2212
     41  N         22.8570   36.4150    6.1210 N.3    57  ARG57      -0.1231
     42  CA        23.2090   35.0080    6.3030 C.3    57  ARG57       0.1679
     43  C         22.4890   34.3630    7.5000 C.2    57  ARG57       0.2434
     44  O         22.2010   35.0260    8.4940 O.2    57  ARG57      -0.2733
     45  CB        24.7360   34.8860    6.4460 C.3    57  ARG57       0.0321
     46  CG        25.5320   35.4140    5.2320 C.3    57  ARG57       0.0489
     47  CD        25.5280   34.4360    4.0340 C.3    57  ARG57       0.2205
     48  NE        26.2880   33.2190    4.3420 N.pl3  57  ARG57      -0.0865
     49  CZ        25.8510   31.9650    4.1740 C.cat  57  ARG57       0.5346
     50  NH1       24.6460   31.7270    3.6520 N.pl3  57  ARG57       0.1354
     51  NH2       26.6420   30.9400    4.5200 N.pl3  57  ARG57       0.1354
     52  N         22.2140   33.0440    7.4280 N.am   58  PRO58      -0.2718
     53  CA        21.5210   32.3360    8.5180 C.3    58  PRO58       0.1535
     54  C         22.0980   32.4070    9.9520 C.2    58  PRO58       0.2598
     55  O         21.3390   32.4920   10.9270 O.2    58  PRO58      -0.2715
     56  CB        21.4230   30.8880    7.9870 C.3    58  PRO58       0.0310
     57  CG        22.5210   30.7990    6.9240 C.3    58  PRO58       0.0237
     58  CD        22.4330   32.1540    6.2690 C.3    58  PRO58       0.0939
     59  N         23.4270   32.3730   10.0560 N.am   59  PHE59      -0.1974
     60  CA        24.1880   32.3990   11.3220 C.3    59  PHE59       0.1639
     61  C         24.4170   33.7870   11.9360 C.2    59  PHE59       0.2290
     62  O         24.9590   33.8830   13.0490 O.2    59  PHE59      -0.2864
     63  CB        25.5640   31.7410   11.1070 C.3    59  PHE59       0.0560
     64  CG        26.4310   32.4360   10.0540 C.ar   59  PHE59      -0.0200
     65  CD1       27.1050   33.6240   10.3410 C.ar   59  PHE59      -0.0042
     66  CD2       26.5710   31.8970    8.7860 C.ar   59  PHE59      -0.0042
     67  CE1       27.9010   34.2620    9.3830 C.ar   59  PHE59      -0.0003
     68  CE2       27.3710   32.5280    7.8240 C.ar   59  PHE59      -0.0003
     69  CZ        28.0290   33.7030    8.1240 C.ar   59  PHE59      -0.0000
     70  N         25.8500   34.9110   15.8470 N.3    63  LEU63      -0.1245
     71  CA        27.1850   35.4870   15.8000 C.3    63  LEU63       0.1561
     72  C         27.2100   36.8040   16.5370 C.2    63  LEU63       0.2260
     73  O         28.0330   37.0170   17.4150 O.2    63  LEU63      -0.2867
     74  CB        27.5920   35.6940   14.3400 C.3    63  LEU63       0.0270
     75  CG        28.9200   36.3740   14.0620 C.3    63  LEU63       0.0019
     76  CD1       30.0260   35.5170   14.6660 C.3    63  LEU63       0.0001
     77  CD2       29.0970   36.5230   12.5700 C.3    63  LEU63       0.0001
     78  N         26.6000   36.1290   20.1200 N.3    66  PHE66      -0.1241
     79  CA        27.8030   35.6000   20.7540 C.3    66  PHE66       0.1605
     80  C         28.8970   36.6600   20.9570 C.2    66  PHE66       0.2264
     81  O         29.3920   36.8560   22.0600 O.2    66  PHE66      -0.2867
     82  CB        28.3180   34.4170   19.9220 C.3    66  PHE66       0.0534
     83  CG        29.7080   33.9680   20.2950 C.ar   66  PHE66      -0.0203
     84  CD1       29.9970   33.5280   21.5880 C.ar   66  PHE66      -0.0042
     85  CD2       30.7470   34.0380   19.3590 C.ar   66  PHE66      -0.0042
     86  CE1       31.3200   33.1750   21.9570 C.ar   66  PHE66      -0.0003
     87  CE2       32.0540   33.6930   19.7060 C.ar   66  PHE66      -0.0003
     88  CZ        32.3370   33.2570   21.0120 C.ar   66  PHE66      -0.0000
     89  N         46.0110   35.6640    8.6640 N.3    87  ARG87      -0.1245
     90  CA        44.9870   34.6890    8.2740 C.3    87  ARG87       0.1563
     91  C         45.5530   33.3030    8.2050 C.2    87  ARG87       0.2260
     92  O         44.9020   32.3540    8.6020 O.2    87  ARG87      -0.2867
     93  CB        44.4180   35.0000    6.9090 C.3    87  ARG87       0.0307
     94  CG        43.7270   36.3210    6.8680 C.3    87  ARG87       0.0489
     95  CD        42.2440   36.1320    6.8810 C.3    87  ARG87       0.2205
     96  NE        41.7930   35.3420    8.0080 N.pl3  87  ARG87      -0.0865
     97  CZ        40.5350   34.9400    8.1840 C.cat  87  ARG87       0.5346
     98  NH1       39.5840   35.2790    7.3160 N.pl3  87  ARG87       0.1354
     99  NH2       40.2180   34.2220    9.2450 N.pl3  87  ARG87       0.1354
    100  N         37.8400   28.9130    8.5060 N.3    93  THR93      -0.1218
    101  CA        36.6390   29.1450    9.3170 C.3    93  THR93       0.1862
    102  C         36.2800   28.0510   10.3250 C.2    93  THR93       0.2287
    103  O         36.0000   28.3290   11.4870 O.2    93  THR93      -0.2866
    104  CB        35.4490   29.4470    8.3980 C.3    93  THR93       0.1770
    105  OG1       35.8400   30.4540    7.4510 O.3    93  THR93      -0.2211
    106  CG2       34.2630   29.9600    9.2160 C.3    93  THR93       0.0375
    107  N         43.2520   28.3120   15.1610 N.3   104  ARG104     -0.1245
    108  CA        42.0260   27.5270   15.2190 C.3   104  ARG104      0.1563
    109  C         42.3360   26.0380   15.2210 C.2   104  ARG104      0.2260
    110  O         41.6430   25.2710   15.8580 O.2   104  ARG104     -0.2867
    111  CB        41.1170   27.8790   14.0180 C.3   104  ARG104      0.0307
    112  CG        40.5990   29.2760   14.1280 C.3   104  ARG104      0.0489
    113  CD        39.6800   29.6060   13.0010 C.3   104  ARG104      0.2205
    114  NE        39.1700   30.9510   13.1870 N.pl3 104  ARG104     -0.0865
    115  CZ        38.6750   31.7090   12.2160 C.cat 104  ARG104      0.5346
    116  NH1       38.6540   31.2660   10.9730 N.pl3 104  ARG104      0.1354
    117  NH2       38.2220   32.9250   12.4970 N.pl3 104  ARG104      0.1354
    118  N         32.7430   25.7620   14.5600 N.3   111  VAL111     -0.1231
    119  CA        32.7470   26.9570   13.7250 C.3   111  VAL111      0.1692
    120  C         32.2520   28.2020   14.4730 C.2   111  VAL111      0.2592
    121  O         32.7030   29.3270   14.1940 O.2   111  VAL111     -0.2718
    122  CB        31.8690   26.7370   12.4440 C.3   111  VAL111      0.0266
    123  CG1       31.8940   27.9600   11.5480 C.3   111  VAL111      0.0020
    124  CG2       32.3530   25.5270   11.6840 C.3   111  VAL111      0.0020
    125  N         31.3050   28.0280   15.3920 N.am  112  GLY112     -0.1957
    126  CA        30.7630   29.1740   16.1100 C.3   112  GLY112      0.1869
    127  C         31.5510   29.6320   17.3140 C.2   112  GLY112      0.2309
    128  O         31.2550   30.6730   17.9070 O.2   112  GLY112     -0.2863
    129  N         35.2000   29.8000   17.3720 N.3   114  ASN114     -0.1240
    130  CA        36.4780   29.6560   16.7220 C.3   114  ASN114      0.1653
    131  C         37.5530   30.6230   17.1510 C.2   114  ASN114      0.2266
    132  O         38.3760   31.0320   16.3610 O.2   114  ASN114     -0.2867
    133  CB        36.3260   29.5530   15.1910 C.3   114  ASN114      0.1155
    134  CG        35.7510   30.7840   14.5610 C.2   114  ASN114      0.2627
    135  OD1       35.4540   31.7600   15.2240 O.2   114  ASN114     -0.2716
    136  ND2       35.5560   30.7280   13.2570 N.am  114  ASN114     -0.0877
    137  N         39.0580   36.3450   15.3620 N.3   117  HIS117     -0.1226
    138  CA        38.6530   36.9520   14.0970 C.3   117  HIS117      0.1752
    139  C         39.8850   37.6150   13.5350 C.2   117  HIS117      0.2596
    140  O         40.6940   38.1700   14.2990 O.2   117  HIS117     -0.2718
    141  CB        37.5930   38.0580   14.2960 C.3   117  HIS117      0.0759
    142  CG        37.5580   39.0720   13.1770 C.ar  117  HIS117      0.0818
    143  ND1       36.9450   38.8260   11.9710 N.ar  117  HIS117     -0.2268
    144  CD2       38.1230   40.2990   13.0570 C.ar  117  HIS117      0.1154
    145  CE1       37.1400   39.8410   11.1530 C.ar  117  HIS117      0.1986
    146  NE2       37.8550   40.7470   11.7890 N.ar  117  HIS117     -0.2212
    147  N         40.0120   37.5900   12.2070 N.am  118  GLY118     -0.1957
    148  CA        41.0970   38.3060   11.5460 C.3   118  GLY118      0.1869
    149  C         40.5920   38.9520   10.2530 C.2   118  GLY118      0.2309
    150  O         39.7660   38.3450    9.5900 O.2   118  GLY118     -0.2863
    151  N         40.1880   39.8650    6.4630 N.3   120  ASP120     -0.1239
    152  CA        40.5500   39.0390    5.3260 C.3   120  ASP120      0.1674
    153  C         41.1530   39.7670    4.1460 C.2   120  ASP120      0.2266
    154  O         41.4930   39.1520    3.1600 O.2   120  ASP120     -0.2867
    155  CB        39.3790   38.1470    4.8980 C.3   120  ASP120      0.1410
    156  CG        38.1450   38.9390    4.4530 C.2   120  ASP120      0.3668
    157  OD1       38.1690   40.1790    4.4380 O.co2 120  ASP120     -0.2456
    158  OD2       37.1340   38.2920    4.0860 O.co2 120  ASP120     -0.2456
@<TRIPOS>BOND
     1   154   153    2
     2    50    49    1
     3    47    48    1
     4    47    46    1
     5   158   156   ar
     6   153   152    1
     7    49    48    2
     8    49    51    1
     9    30    28   ar
    10    25    24    2
    11   157   156   ar
    12   156   155    1
    13    26    23    1
    14    26    27    1
    15   155   152    1
    16    28    27    1
    17    28    29   ar
    18    23    24    1
    19    23    22    1
    20    46    45    1
    21    24    31   am
    22   152   151    1
    23    41    42    1
    24    58    57    1
    25    58    52    1
    26    42    45    1
    27    42    43    1
    28    31    32    1
    29    37    39   ar
    30    37    36   ar
    31    39    40   ar
    32    32    33    1
    33    32    35    1
    34    94    95    1
    35    94    93    1
    36    95    96    1
    37    93    90    1
    38    57    56    1
    39    33    34    2
    40    98    97    1
    41    52    43   am
    42    52    53    1
    43   105   104    1
    44    43    44    2
    45    36    35    1
    46    36    38   ar
    47    40    38   ar
    48    68    69   ar
    49    68    66   ar
    50    56    53    1
    51    96    97    2
    52    69    67   ar
    53    97    99    1
    54    91    90    1
    55    91    92    2
    56    90    89    1
    57   104   106    1
    58   104   101    1
    59   100   101    1
    60    53    54    1
    61    66    64   ar
    62    13    12    2
    63   101   102    1
    64    67    65   ar
    65    12    11    1
    66   150   149    2
    67    54    59   am
    68    54    55    2
    69    64    65   ar
    70    64    63    1
    71    59    60    1
    72   149   148    1
    73   102   103    2
    74    11    10    1
    75    11    14    1
    76   116   115    1
    77    63    60    1
    78   145   146   ar
    79   145   143   ar
    80    60    61    1
    81    16    18   ar
    82    16    15   ar
    83    14    15    1
    84   148   147    1
    85   123   122    1
    86   124   122    1
    87   146   144   ar
    88    61    62    2
    89   143   142   ar
    90    18    20   ar
    91    15    17   ar
    92   147   139   am
    93   115   117    1
    94   115   114    2
    95   122   119    1
    96    77    75    1
    97   113   114    1
    98   113   112    1
    99   144   142   ar
   100   142   141    1
   101   136   134   am
   102    20    21    1
   103    20    19   ar
   104   139   138    1
   105   139   140    2
   106    17    19   ar
   107   119   120    1
   108   119   118    1
   109   111   112    1
   110   111   108    1
   111    75    74    1
   112    75    76    1
   113   138   141    1
   114   138   137    1
   115   121   120    2
   116    74    71    1
   117   120   125   am
   118   134   133    1
   119   134   135    2
   120     9     8    1
   121   107   108    1
   122   133   130    1
   123   108   109    1
   124   109   110    2
   125   125   126    1
   126    71    70    1
   127    71    72    1
   128     8     7    1
   129   126   127    1
   130   132   131    2
   131    72    73    2
   132   130   131    1
   133   130   129    1
   134   127   128    2
   135     7     6    1
   136     6     5    1
   137    85    87   ar
   138    85    83   ar
   139     5     2    1
   140    87    88   ar
   141    82    83    1
   142    82    79    1
   143    78    79    1
   144    83    84   ar
   145     1     2    1
   146     2     3    1
   147    79    80    1
   148    80    81    2
   149    88    86   ar
   150    84    86   ar
   151     3     4    2
