@<TRIPOS>MOLECULE
tmp/1kdoB00.pdb
 177 164 0 0 0
SMALL
GASTEIGER

@<TRIPOS>ATOM
      1  N          8.3100   14.5460   30.7350 N.3    12  SER12      -0.1217
      2  CA         8.1680   15.0830   32.0820 C.3    12  SER12       0.1889
      3  C          9.4930   15.1590   32.8380 C.2    12  SER12       0.2288
      4  O         10.2650   14.2010   32.8670 O.2    12  SER12      -0.2866
      5  CB         7.1830   14.2210   32.8730 C.3    12  SER12       0.2089
      6  OG         5.9930   14.0060   32.1370 O.3    12  SER12      -0.2183
      7  N         12.7510   21.3550   31.0240 N.3    16  LYS16      -0.1245
      8  CA        12.2820   22.3480   30.0610 C.3    16  LYS16       0.1561
      9  C         11.9800   23.6960   30.7070 C.2    16  LYS16       0.2260
     10  O         12.3410   24.7430   30.1680 O.2    16  LYS16      -0.2867
     11  CB        11.0350   21.8340   29.3220 C.3    16  LYS16       0.0271
     12  CG        11.2560   20.5100   28.5880 C.3    16  LYS16       0.0035
     13  CD        10.0950   20.1430   27.6540 C.3    16  LYS16       0.0206
     14  CE         8.7800   19.9670   28.4060 C.3    16  LYS16       0.1093
     15  NZ         8.8720   18.9230   29.4670 N.3    16  LYS16      -0.1314
     16  N          4.7380   28.7030   28.8570 N.3    33  ASP33      -0.1225
     17  CA         4.7430   27.4210   29.5570 C.3    33  ASP33       0.1805
     18  C          3.3900   26.8110   29.1950 C.2    33  ASP33       0.2598
     19  O          2.4080   26.9900   29.9120 O.2    33  ASP33      -0.2718
     20  CB         4.8520   27.6590   31.0740 C.3    33  ASP33       0.1424
     21  CG         4.7410   26.3770   31.8990 C.2    33  ASP33       0.3668
     22  OD1        4.9950   26.4420   33.1250 O.co2  33  ASP33      -0.2456
     23  OD2        4.3940   25.3160   31.3400 O.co2  33  ASP33      -0.2456
     24  N          3.3320   26.1140   28.0640 N.am   34  SER34      -0.1938
     25  CA         2.0780   25.5170   27.6220 C.3    34  SER34       0.2055
     26  C          1.5530   24.4890   28.6230 C.2    34  SER34       0.2643
     27  O          0.3410   24.3270   28.7770 O.2    34  SER34      -0.2714
     28  CB         2.2430   24.8820   26.2320 C.3    34  SER34       0.2130
     29  OG         3.1290   23.7820   26.2550 O.3    34  SER34      -0.2179
     30  N          2.4580   23.8040   29.3150 N.am   35  GLY35      -0.1954
     31  CA         2.0260   22.8260   30.2990 C.3    35  GLY35       0.1869
     32  C          1.1610   23.4830   31.3600 C.2    35  GLY35       0.2309
     33  O          0.2070   22.8820   31.8600 O.2    35  GLY35      -0.2863
     34  N         -2.5390   23.5090   30.2400 N.3    38  TYR38      -0.1227
     35  CA        -3.2640   22.2520   30.4150 C.3    38  TYR38       0.1736
     36  C         -3.4830   22.0010   31.9000 C.2    38  TYR38       0.2595
     37  O         -4.5130   21.4590   32.3040 O.2    38  TYR38      -0.2718
     38  CB        -2.4950   21.0700   29.8020 C.3    38  TYR38       0.0548
     39  CG        -2.4830   21.0660   28.2920 C.ar   38  TYR38      -0.0200
     40  CD1       -1.4170   21.6190   27.5810 C.ar   38  TYR38      -0.0009
     41  CD2       -3.5720   20.5750   27.5700 C.ar   38  TYR38      -0.0009
     42  CE1       -1.4380   21.6900   26.1930 C.ar   38  TYR38       0.0417
     43  CE2       -3.6030   20.6430   26.1800 C.ar   38  TYR38       0.0417
     44  CZ        -2.5350   21.2050   25.4990 C.ar   38  TYR38       0.1957
     45  OH        -2.5720   21.3040   24.1280 O.3    38  TYR38      -0.2866
     46  N         -2.5080   22.3950   32.7130 N.am   39  ARG39      -0.1980
     47  CA        -2.6190   22.2150   34.1530 C.3    39  ARG39       0.1597
     48  C         -3.7320   23.0790   34.7460 C.2    39  ARG39       0.2287
     49  O         -4.5340   22.5950   35.5410 O.2    39  ARG39      -0.2864
     50  CB        -1.2840   22.5320   34.8380 C.3    39  ARG39       0.0334
     51  CG        -0.2360   21.4380   34.6670 C.3    39  ARG39       0.0492
     52  CD         1.1270   21.8500   35.2160 C.3    39  ARG39       0.2205
     53  NE         2.0980   20.7610   35.1000 N.pl3  39  ARG39      -0.0865
     54  CZ         2.4330   19.9270   36.0820 C.cat  39  ARG39       0.5346
     55  NH1        1.8860   20.0400   37.2850 N.pl3  39  ARG39       0.1354
     56  NH2        3.3160   18.9650   35.8540 N.pl3  39  ARG39       0.1354
     57  N          0.8260   22.6700   40.4350 N.3    90  ARG90      -0.1245
     58  CA         2.0370   21.8600   40.4640 C.3    90  ARG90       0.1563
     59  C          1.9020   20.6540   41.3840 C.2    90  ARG90       0.2260
     60  O          2.8840   20.1760   41.9450 O.2    90  ARG90      -0.2867
     61  CB         3.2330   22.7100   40.8920 C.3    90  ARG90       0.0307
     62  CG         3.4790   23.9140   39.9950 C.3    90  ARG90       0.0489
     63  CD         3.7430   23.5110   38.5480 C.3    90  ARG90       0.2205
     64  NE         3.8670   24.6870   37.6920 N.pl3  90  ARG90      -0.0865
     65  CZ         4.1210   24.6520   36.3880 C.cat  90  ARG90       0.5346
     66  NH1        4.2820   23.4940   35.7680 N.pl3  90  ARG90       0.1354
     67  NH2        4.2130   25.7850   35.7020 N.pl3  90  ARG90       0.1354
     68  N         -1.1770   17.2710   37.7030 N.3    95  ALA95      -0.1245
     69  CA        -0.3070   16.7610   36.6460 C.3    95  ALA95       0.1562
     70  C         -0.9770   15.6080   35.9050 C.2    95  ALA95       0.2260
     71  O         -0.9910   15.5710   34.6730 O.2    95  ALA95      -0.2867
     72  CB         1.0250   16.3030   37.2390 C.3    95  ALA95       0.0290
     73  N         -4.1050   16.8140   34.0300 N.3    98  ALA98      -0.1231
     74  CA        -3.6850   17.6190   32.8890 C.3    98  ALA98       0.1694
     75  C         -3.3620   16.7300   31.6890 C.2    98  ALA98       0.2592
     76  O         -3.7200   17.0500   30.5560 O.2    98  ALA98      -0.2718
     77  CB        -2.4670   18.4680   33.2660 C.3    98  ALA98       0.0304
     78  N         -2.6920   15.6100   31.9490 N.am   99  SER99      -0.1952
     79  CA        -2.3180   14.6620   30.9030 C.3    99  SER99       0.1924
     80  C         -3.5750   13.9800   30.3680 C.2    99  SER99       0.2314
     81  O         -3.6960   13.7210   29.1680 O.2    99  SER99      -0.2863
     82  CB        -1.3520   13.6130   31.4690 C.3    99  SER99       0.2116
     83  OG        -0.8270   12.7820   30.4480 O.3    99  SER99      -0.2180
     84  N         -5.4260   16.5910   28.2730 N.3   102  ALA102     -0.1245
     85  CA        -4.6660   16.9120   27.0690 C.3   102  ALA102      0.1562
     86  C         -4.8240   15.8880   25.9430 C.2   102  ALA102      0.2260
     87  O         -4.5450   16.1930   24.7860 O.2   102  ALA102     -0.2867
     88  CB        -3.1860   17.0700   27.4190 C.3   102  ALA102      0.0290
     89  N         -7.6290   20.1390   22.8920 N.3   108  ARG108     -0.1245
     90  CA        -6.4120   20.7440   22.3580 C.3   108  ARG108      0.1563
     91  C         -6.7570   21.8350   21.3540 C.2   108  ARG108      0.2260
     92  O         -6.1700   22.9100   21.3690 O.2   108  ARG108     -0.2867
     93  CB        -5.5330   19.6940   21.6710 C.3   108  ARG108      0.0307
     94  CG        -5.0230   18.5900   22.5780 C.3   108  ARG108      0.0489
     95  CD        -3.9210   17.7910   21.8880 C.3   108  ARG108      0.2205
     96  NE        -2.6440   18.5010   21.8940 N.pl3 108  ARG108     -0.0865
     97  CZ        -1.8130   18.5410   22.9330 C.cat 108  ARG108      0.5346
     98  NH1       -2.1210   17.9020   24.0540 N.pl3 108  ARG108      0.1354
     99  NH2       -0.6790   19.2290   22.8590 N.pl3 108  ARG108      0.1354
    100  N         -2.4330   29.7990   22.9110 N.3   115  GLN115     -0.1245
    101  CA        -0.9890   29.5630   22.8790 C.3   115  GLN115      0.1566
    102  C         -0.2950   30.3700   21.7900 C.2   115  GLN115      0.2260
    103  O          0.7260   31.0160   22.0350 O.2   115  GLN115     -0.2867
    104  CB        -0.6950   28.0760   22.6540 C.3   115  GLN115      0.0367
    105  CG        -1.3340   27.1520   23.6770 C.3   115  GLN115      0.0905
    106  CD        -1.1470   25.6840   23.3390 C.2   115  GLN115      0.2608
    107  OE1       -0.0690   25.1160   23.5370 O.2   115  GLN115     -0.2717
    108  NE2       -2.1980   25.0630   22.8110 N.am  115  GLN115     -0.0878
    109  N          7.6640   26.2900   25.7480 N.3   127  ASP127     -0.1224
    110  CA         7.8640   25.0530   26.5030 C.3   127  ASP127      0.1809
    111  C          6.6550   24.1160   26.3280 C.2   127  ASP127      0.2637
    112  O          5.5210   24.5160   26.5890 O.2   127  ASP127     -0.2714
    113  CB         8.0270   25.4400   27.9780 C.3   127  ASP127      0.1424
    114  CG         8.0790   24.2500   28.9210 C.2   127  ASP127      0.3668
    115  OD1        7.6650   23.1300   28.5550 O.co2 127  ASP127     -0.2456
    116  OD2        8.5290   24.4580   30.0660 O.co2 127  ASP127     -0.2456
    117  N          6.8910   22.8780   25.8950 N.am  128  GLY128     -0.1718
    118  CA         5.7760   21.9550   25.7300 C.2   128  GLY128      0.1480
    119  C          6.0950   20.5380   25.2840 C.2   128  GLY128      0.2820
    120  O          7.1680   19.9960   25.5670 O.2   128  GLY128     -0.2669
    121  N          5.1280   19.9330   24.6020 N.am  129  ARG129     -0.1929
    122  CA         5.2510   18.5800   24.0710 C.3   129  ARG129      0.1732
    123  C          5.1450   18.6310   22.5480 C.2   129  ARG129      0.2616
    124  O          5.8520   17.9160   21.8410 O.2   129  ARG129     -0.2715
    125  CB         4.1260   17.6830   24.6070 C.3   129  ARG129      0.0348
    126  CG         4.1240   17.4650   26.1070 C.3   129  ARG129      0.0492
    127  CD         5.3270   16.6460   26.5330 C.3   129  ARG129      0.2205
    128  NE         5.3150   16.3370   27.9590 N.pl3 129  ARG129     -0.0865
    129  CZ         5.3820   17.2470   28.9250 C.cat 129  ARG129      0.5346
    130  NH1        5.4660   18.5390   28.6270 N.pl3 129  ARG129      0.1354
    131  NH2        5.3740   16.8630   30.1930 N.pl3 129  ARG129      0.1354
    132  N          4.2640   19.4960   22.0510 N.am  130  ASP130     -0.1957
    133  CA         4.0290   19.6250   20.6140 C.3   130  ASP130      0.1840
    134  C          4.2560   21.0330   20.0700 C.2   130  ASP130      0.2621
    135  O          3.6680   21.4150   19.0540 O.2   130  ASP130     -0.2715
    136  CB         2.5970   19.1970   20.3020 C.3   130  ASP130      0.1450
    137  CG         1.5640   20.1560   20.8720 C.2   130  ASP130      0.3671
    138  OD1        1.8500   20.8150   21.8990 O.co2 130  ASP130     -0.2456
    139  OD2        0.4580   20.2390   20.3000 O.co2 130  ASP130     -0.2456
    140  N          5.1080   21.8050   20.7290 N.am  131  MET131     -0.1977
    141  CA         5.3560   23.1630   20.2680 C.3   131  MET131      0.1605
    142  C          6.0180   23.1790   18.8940 C.2   131  MET131      0.2287
    143  O          5.6310   23.9570   18.0220 O.2   131  MET131     -0.2864
    144  CB         6.2160   23.9180   21.2850 C.3   131  MET131      0.0413
    145  CG         5.6370   23.9040   22.6970 C.3   131  MET131      0.0598
    146  SD         3.9020   24.4170   22.7530 S.3   131  MET131     -0.1393
    147  CE         4.1030   26.1450   22.7120 C.3   131  MET131      0.0692
    148  N          2.7710    8.9720   32.7070 N.3   179  ARG179     -0.1245
    149  CA         2.4180   10.2450   32.1000 C.3   179  ARG179      0.1563
    150  C          3.0750   10.3740   30.7280 C.2   179  ARG179      0.2260
    151  O          2.4380   10.8220   29.7730 O.2   179  ARG179     -0.2867
    152  CB         2.8310   11.4090   33.0090 C.3   179  ARG179      0.0307
    153  CG         2.3020   12.7560   32.5370 C.3   179  ARG179      0.0489
    154  CD         1.8290   13.6160   33.7010 C.3   179  ARG179      0.2205
    155  NE         2.9240   14.1290   34.5220 N.pl3 179  ARG179     -0.0865
    156  CZ         3.6850   15.1720   34.1990 C.cat 179  ARG179      0.5346
    157  NH1        3.4800   15.8290   33.0620 N.pl3 179  ARG179      0.1354
    158  NH2        4.6470   15.5690   35.0230 N.pl3 179  ARG179      0.1354
    159  N          1.3180   10.5240   26.9180 N.3   183  ASP183     -0.1239
    160  CA         1.6520   11.6460   26.0400 C.3   183  ASP183      0.1674
    161  C          2.2740   11.2190   24.7140 C.2   183  ASP183      0.2266
    162  O          2.0750   11.8700   23.6890 O.2   183  ASP183     -0.2867
    163  CB         2.6160   12.6090   26.7420 C.3   183  ASP183      0.1410
    164  CG         1.9950   13.2850   27.9520 C.2   183  ASP183      0.3668
    165  OD1        0.7620   13.1860   28.1360 O.co2 183  ASP183     -0.2456
    166  OD2        2.7450   13.9230   28.7140 O.co2 183  ASP183     -0.2456
    167  N         -0.7950    8.8430   22.5660 N.3   186  ARG186     -0.1245
    168  CA        -2.0730    9.4010   22.1380 C.3   186  ARG186      0.1563
    169  C         -2.0820    9.6180   20.6310 C.2   186  ARG186      0.2260
    170  O         -1.0400    9.8640   20.0200 O.2   186  ARG186     -0.2867
    171  CB        -2.3630   10.7150   22.8690 C.3   186  ARG186      0.0307
    172  CG        -1.3360   11.8000   22.6460 C.3   186  ARG186      0.0489
    173  CD        -1.5120   12.9420   23.6370 C.3   186  ARG186      0.2205
    174  NE        -0.6040   14.0420   23.3330 N.pl3 186  ARG186     -0.0865
    175  CZ        -0.3240   15.0410   24.1630 C.cat 186  ARG186      0.5346
    176  NH1       -0.8790   15.0860   25.3680 N.pl3 186  ARG186      0.1354
    177  NH2        0.5100   15.9980   23.7830 N.pl3 186  ARG186      0.1354
@<TRIPOS>BOND
     1   143   142    2
     2   142   141    1
     3   135   134    2
     4   170   169    2
     5   134   133    1
     6   134   140   am
     7   141   140    1
     8   141   144    1
     9   139   137   ar
    10   136   133    1
    11   136   137    1
    12   133   132    1
    13   169   168    1
    14   137   138   ar
    15   144   145    1
    16    91    92    2
    17    91    90    1
    18    93    90    1
    19    93    94    1
    20   102   103    2
    21   102   101    1
    22   124   123    2
    23    95    96    1
    24    95    94    1
    25    96    97    2
    26   132   123   am
    27   168   167    1
    28   168   171    1
    29    90    89    1
    30   123   122    1
    31   172   171    1
    32   172   173    1
    33   104   101    1
    34   104   105    1
    35   145   146    1
    36   147   146    1
    37   108   106   am
    38    99    97    1
    39   101   100    1
    40    97    98    1
    41   174   173    1
    42   174   175    2
    43   106   107    2
    44   106   105    1
    45   162   161    2
    46   177   175    1
    47   122   121    1
    48   122   125    1
    49    45    44    1
    50   175   176    1
    51   121   119   am
    52   125   126    1
    53   161   160    1
    54    87    86    2
    55   119   120    2
    56   119   118    1
    57    44    43   ar
    58    44    42   ar
    59   118   117    2
    60   109   110    1
    61   117   111    1
    62    86    85    1
    63   160   163    1
    64   160   159    1
    65   126   127    1
    66    43    41   ar
    67    42    40   ar
    68    28    29    1
    69    28    25    1
    70   111   110    1
    71   111   112    2
    72   110   113    1
    73   127   128    1
    74   163   164    1
    75    85    88    1
    76    85    84    1
    77    41    39   ar
    78    40    39   ar
    79    25    24    1
    80    25    26    1
    81    13    14    1
    82    13    12    1
    83   164   165   ar
    84   164   166   ar
    85   128   129    2
    86   113   114    1
    87    24    18   am
    88    39    38    1
    89    14    15    1
    90   115   114   ar
    91    12    11    1
    92    26    27    2
    93    26    30   am
    94   130   129    1
    95    16    17    1
    96   114   116   ar
    97   129   131    1
    98    81    80    2
    99    18    17    1
   100    18    19    2
   101    30    31    1
   102    11     8    1
   103    17    20    1
   104   151   150    2
   105    38    35    1
   106     8     9    1
   107     8     7    1
   108    10     9    2
   109    34    35    1
   110    31    32    1
   111    80    79    1
   112    35    36    1
   113    83    82    1
   114    76    75    2
   115   150   149    1
   116     1     2    1
   117    79    82    1
   118    79    78    1
   119    20    21    1
   120    23    21   ar
   121    32    33    2
   122    75    78   am
   123    75    74    1
   124    21    22   ar
   125    36    37    2
   126    36    46   am
   127     2     3    1
   128     2     5    1
   129   149   148    1
   130   149   152    1
   131     6     5    1
   132   153   152    1
   133   153   154    1
   134    46    47    1
   135     3     4    2
   136    74    77    1
   137    74    73    1
   138   157   156    1
   139   154   155    1
   140    47    48    1
   141    47    50    1
   142   156   155    2
   143   156   158    1
   144    51    50    1
   145    51    52    1
   146    71    70    2
   147    48    49    2
   148    53    52    1
   149    53    54    2
   150    67    65    1
   151    66    65    1
   152    56    54    1
   153    70    69    1
   154    54    55    1
   155    65    64    2
   156    69    72    1
   157    69    68    1
   158    64    63    1
   159    63    62    1
   160    62    61    1
   161    57    58    1
   162    58    61    1
   163    58    59    1
   164    59    60    2
