@<TRIPOS>MOLECULE
tmp/1kdsA00.pdb
 91 84 0 0 0
SMALL
GASTEIGER

@<TRIPOS>ATOM
      1  N         26.9950    1.8630   16.4520 N.3    61  SER61      -0.1217
      2  CA        28.3590    2.3040   16.7300 C.3    61  SER61       0.1889
      3  C         29.2600    1.3940   17.5500 C.2    61  SER61       0.2288
      4  O         30.4300    1.7220   17.7680 O.2    61  SER61      -0.2866
      5  CB        28.3450    3.6870   17.3430 C.3    61  SER61       0.2089
      6  OG        27.9260    4.6030   16.3520 O.3    61  SER61      -0.2183
      7  N         32.3970    0.4980   15.8200 N.3    64  LYS64      -0.1245
      8  CA        33.6150    1.3020   15.9080 C.3    64  LYS64       0.1561
      9  C         34.7170    0.6320   16.7370 C.2    64  LYS64       0.2260
     10  O         35.9190    0.8920   16.5390 O.2    64  LYS64      -0.2867
     11  CB        33.2870    2.6910   16.4820 C.3    64  LYS64       0.0271
     12  CG        32.4300    3.5640   15.5650 C.3    64  LYS64       0.0035
     13  CD        31.9930    4.8580   16.2710 C.3    64  LYS64       0.0206
     14  CE        31.3210    5.8580   15.3190 C.3    64  LYS64       0.1093
     15  NZ        29.9890    5.3870   14.8390 N.3    64  LYS64      -0.1314
     16  N         29.3240   14.6570   12.3780 N.3   116  LEU116     -0.1231
     17  CA        28.8700   13.3870   12.9380 C.3   116  LEU116      0.1693
     18  C         28.4030   12.4520   11.8360 C.2   116  LEU116      0.2591
     19  O         28.6490   11.2490   11.8860 O.2   116  LEU116     -0.2718
     20  CB        27.7250   13.6030   13.9400 C.3   116  LEU116      0.0284
     21  CG        26.9100   12.3420   14.2790 C.3   116  LEU116      0.0019
     22  CD1       27.7210   11.4000   15.1590 C.3   116  LEU116      0.0001
     23  CD2       25.6120   12.7370   14.9720 C.3   116  LEU116      0.0001
     24  N         27.7270   13.0100   10.8410 N.am  117  GLN117     -0.1979
     25  CA        27.2380   12.2100    9.7350 C.3   117  GLN117      0.1601
     26  C         27.7590   12.6700    8.3810 C.2   117  GLN117      0.2287
     27  O         27.9900   13.8640    8.1540 O.2   117  GLN117     -0.2864
     28  CB        25.7110   12.2330    9.7090 C.3   117  GLN117      0.0394
     29  CG        25.0620   11.6280   10.9380 C.3   117  GLN117      0.0908
     30  CD        23.8400   12.4120   11.3940 C.2   117  GLN117      0.2608
     31  OE1       22.7310   11.8700   11.4690 O.2   117  GLN117     -0.2717
     32  NE2       24.0350   13.6940   11.6990 N.am  117  GLN117     -0.0878
     33  N         32.4430   13.5970   18.5420 N.3   147  TYR147     -0.1241
     34  CA        32.0720   12.2580   18.1140 C.3   147  TYR147      0.1605
     35  C         31.5700   12.3210   16.6720 C.2   147  TYR147      0.2264
     36  O         30.6210   13.0460   16.3790 O.2   147  TYR147     -0.2867
     37  CB        30.9910   11.7260   19.0510 C.3   147  TYR147      0.0534
     38  CG        30.5580   10.3020   18.7700 C.ar  147  TYR147     -0.0201
     39  CD1       29.2680   10.0310   18.3000 C.ar  147  TYR147     -0.0009
     40  CD2       31.4120    9.2230   19.0300 C.ar  147  TYR147     -0.0009
     41  CE1       28.8330    8.7320   18.1050 C.ar  147  TYR147      0.0417
     42  CE2       30.9830    7.9050   18.8360 C.ar  147  TYR147      0.0417
     43  CZ        29.6890    7.6760   18.3800 C.ar  147  TYR147      0.1957
     44  OH        29.2200    6.4050   18.2400 O.3   147  TYR147     -0.2866
     45  N         31.0300    9.9890   12.7610 N.3   149  ASN149     -0.1240
     46  CA        31.1340    8.8300   11.8820 C.3   149  ASN149      0.1653
     47  C         32.1310    9.1330   10.7550 C.2   149  ASN149      0.2266
     48  O         32.9180    8.2760   10.3490 O.2   149  ASN149     -0.2867
     49  CB        29.7750    8.5220   11.2520 C.3   149  ASN149      0.1155
     50  CG        28.8530    7.7410   12.1660 C.2   149  ASN149      0.2627
     51  OD1       29.2330    7.3300   13.2560 O.2   149  ASN149     -0.2716
     52  ND2       27.6240    7.5330   11.7140 N.am  149  ASN149     -0.0877
     53  N         18.9140   -1.0100    9.1720 N.3   208  VAL208     -0.1245
     54  CA        19.7860    0.1270    8.8900 C.3   208  VAL208      0.1561
     55  C         19.9050    0.3660    7.3850 C.2   208  VAL208      0.2260
     56  O         20.0570   -0.5690    6.6070 O.2   208  VAL208     -0.2867
     57  CB        21.1970   -0.0810    9.5090 C.3   208  VAL208      0.0252
     58  CG1       21.9010   -1.2330    8.8290 C.3   208  VAL208      0.0019
     59  CG2       22.0140    1.2080    9.4110 C.3   208  VAL208      0.0019
     60  N         29.2820    1.9500   11.4750 N.3   218  TYR218     -0.1241
     61  CA        28.1060    1.4270   12.1810 C.3   218  TYR218      0.1605
     62  C         27.4470    0.2220   11.5110 C.2   218  TYR218      0.2264
     63  O         26.2810   -0.0630   11.7660 O.2   218  TYR218     -0.2867
     64  CB        27.0600    2.5480   12.3080 C.3   218  TYR218      0.0534
     65  CG        26.6310    3.1660   10.9720 C.ar  218  TYR218     -0.0201
     66  CD1       25.7200    2.5170   10.1330 C.ar  218  TYR218     -0.0009
     67  CD2       27.1390    4.3940   10.5520 C.ar  218  TYR218     -0.0009
     68  CE1       25.3250    3.0800    8.9080 C.ar  218  TYR218      0.0417
     69  CE2       26.7500    4.9630    9.3320 C.ar  218  TYR218      0.0417
     70  CZ        25.8450    4.3000    8.5210 C.ar  218  TYR218      0.1957
     71  OH        25.4550    4.8670    7.3350 O.3   218  TYR218     -0.2866
     72  N         27.7130   13.4480   22.3420 N.3   290  LEU290     -0.1245
     73  CA        27.8910   13.9490   20.9790 C.3   290  LEU290      0.1561
     74  C         28.4480   15.3850   20.8850 C.2   290  LEU290      0.2260
     75  O         28.9770   15.7780   19.8390 O.2   290  LEU290     -0.2867
     76  CB        26.5500   13.8760   20.2320 C.3   290  LEU290      0.0270
     77  CG        26.1850   12.6000   19.4590 C.3   290  LEU290      0.0019
     78  CD1       26.3750   11.3750   20.3480 C.3   290  LEU290      0.0001
     79  CD2       24.7390   12.6960   18.9680 C.3   290  LEU290      0.0001
     80  N         23.7610    2.5070   18.3410 N.3   315  ALA315     -0.1231
     81  CA        22.3550    2.6200   18.0030 C.3   315  ALA315      0.1694
     82  C         22.1830    2.8490   16.5130 C.2   315  ALA315      0.2592
     83  O         23.0190    3.4800   15.8740 O.2   315  ALA315     -0.2718
     84  CB        21.7190    3.7820   18.7820 C.3   315  ALA315      0.0304
     85  N         21.1270    2.2710   15.9620 N.am  316  THR316     -0.1953
     86  CA        20.7660    2.4990   14.5760 C.3   316  THR316      0.1897
     87  C         19.3140    2.9360   14.7670 C.2   316  THR316      0.2313
     88  O         18.8610    3.0970   15.9100 O.2   316  THR316     -0.2863
     89  CB        20.8570    1.2210   13.7110 C.3   316  THR316      0.1794
     90  OG1       20.0730    0.1820   14.2990 O.3   316  THR316     -0.2208
     91  CG2       22.2940    0.7520   13.5750 C.3   316  THR316      0.0378
@<TRIPOS>BOND
     1    56    55    2
     2    71    70    1
     3    55    54    1
     4    27    26    2
     5    26    25    1
     6    70    68   ar
     7    70    69   ar
     8    58    57    1
     9    54    53    1
    10    54    57    1
    11    68    66   ar
    12    69    67   ar
    13    59    57    1
    14    28    25    1
    15    28    29    1
    16    25    24    1
    17    66    65   ar
    18    48    47    2
    19    67    65   ar
    20    47    46    1
    21    24    18   am
    22    29    30    1
    23    65    64    1
    24    49    46    1
    25    49    50    1
    26    30    31    2
    27    30    32   am
    28    60    61    1
    29    62    63    2
    30    62    61    1
    31    52    50   am
    32    18    19    2
    33    18    17    1
    34    46    45    1
    35    50    51    2
    36    61    64    1
    37    16    17    1
    38    17    20    1
    39    91    89    1
    40    89    90    1
    41    89    86    1
    42    20    21    1
    43    21    23    1
    44    21    22    1
    45    86    87    1
    46    86    85    1
    47    87    88    2
    48    15    14    1
    49    14    13    1
    50    12    13    1
    51    12    11    1
    52     7     8    1
    53    83    82    2
    54     8    11    1
    55     8     9    1
    56    85    82   am
    57     6     5    1
    58    36    35    2
    59     1     2    1
    60    82    81    1
    61    10     9    2
    62    35    34    1
    63     2     5    1
    64     2     3    1
    65     3     4    2
    66    81    80    1
    67    81    84    1
    68    41    39   ar
    69    41    43   ar
    70    34    33    1
    71    34    37    1
    72    44    43    1
    73    39    38   ar
    74    43    42   ar
    75    38    40   ar
    76    38    37    1
    77    42    40   ar
    78    79    77    1
    79    77    76    1
    80    77    78    1
    81    75    74    2
    82    76    73    1
    83    74    73    1
    84    73    72    1
