@<TRIPOS>MOLECULE
tmp/1ke0B00.pdb
 99 92 0 0 0
SMALL
GASTEIGER

@<TRIPOS>ATOM
      1  N         77.4160    1.5450   29.5780 N.3    61  SER61      -0.1217
      2  CA        76.0940    1.9890   29.1590 C.3    61  SER61       0.1889
      3  C         75.1530    0.9820   28.4970 C.2    61  SER61       0.2288
      4  O         73.9590    1.2620   28.3470 O.2    61  SER61      -0.2866
      5  CB        76.2300    3.2280   28.3080 C.3    61  SER61       0.2089
      6  OG        76.6470    4.2720   29.1560 O.3    61  SER61      -0.2183
      7  N         71.9490    0.5240   30.1660 N.3    64  LYS64      -0.1245
      8  CA        70.7540    1.3580   29.9670 C.3    64  LYS64       0.1561
      9  C         69.6290    0.5680   29.3180 C.2    64  LYS64       0.2260
     10  O         68.4440    0.9250   29.4430 O.2    64  LYS64      -0.2867
     11  CB        71.0960    2.5920   29.1160 C.3    64  LYS64       0.0271
     12  CG        72.0480    3.5930   29.8100 C.3    64  LYS64       0.0035
     13  CD        72.3930    4.7770   28.9200 C.3    64  LYS64       0.0206
     14  CE        73.0700    5.9150   29.6850 C.3    64  LYS64       0.1093
     15  NZ        74.4200    5.5810   30.2200 N.3    64  LYS64      -0.1314
     16  N         75.6710   14.8190   30.8010 N.3   116  LEU116     -0.1231
     17  CA        76.1500   13.4880   30.4990 C.3   116  LEU116      0.1693
     18  C         76.4860   12.7320   31.7870 C.2   116  LEU116      0.2592
     19  O         76.1090   11.5670   31.9640 O.2   116  LEU116     -0.2718
     20  CB        77.3860   13.5860   29.5950 C.3   116  LEU116      0.0284
     21  CG        78.2120   12.3130   29.4340 C.3   116  LEU116      0.0019
     22  CD1       77.3160   11.1450   29.0260 C.3   116  LEU116      0.0001
     23  CD2       79.2980   12.5450   28.4100 C.3   116  LEU116      0.0001
     24  N         77.1830   13.4000   32.6960 N.am  117  GLN117     -0.1966
     25  CA        77.5490   12.7420   33.9390 C.3   117  GLN117      0.1733
     26  C         77.0180   13.4700   35.1550 C.2   117  GLN117      0.2616
     27  O         76.8730   14.6920   35.1550 O.2   117  GLN117     -0.2715
     28  CB        79.0710   12.6420   34.0840 C.3   117  GLN117      0.0408
     29  CG        79.8550   12.8910   32.8080 C.3   117  GLN117      0.0908
     30  CD        81.3290   13.1570   33.0750 C.2   117  GLN117      0.2608
     31  OE1       81.6950   14.1820   33.6700 O.2   117  GLN117     -0.2717
     32  NE2       82.1860   12.2320   32.6400 N.am  117  GLN117     -0.0878
     33  N         76.7180   12.6940   36.1870 N.am  118  VAL118     -0.1977
     34  CA        76.2820   13.2420   37.4650 C.3   118  VAL118      0.1596
     35  C         77.6320   13.6260   38.0850 C.2   118  VAL118      0.2287
     36  O         78.5000   12.7540   38.2530 O.2   118  VAL118     -0.2864
     37  CB        75.6250   12.1460   38.3400 C.3   118  VAL118      0.0276
     38  CG1       75.2960   12.7110   39.6960 C.3   118  VAL118      0.0022
     39  CG2       74.3660   11.5930   37.6510 C.3   118  VAL118      0.0022
     40  N         80.9780   14.0250   39.9340 N.3   120  ASP120     -0.1239
     41  CA        81.5910   13.0770   40.8750 C.3   120  ASP120      0.1674
     42  C         81.4880   13.4520   42.3610 C.2   120  ASP120      0.2266
     43  O         81.5820   12.5720   43.2150 O.2   120  ASP120     -0.2867
     44  CB        83.0660   12.8320   40.5030 C.3   120  ASP120      0.1410
     45  CG        83.2980   11.7950   39.4600 C.2   120  ASP120      0.3668
     46  OD1       82.3800   11.1330   39.0260 O.co2 120  ASP120     -0.2456
     47  OD2       84.5380   11.6320   39.1160 O.co2 120  ASP120     -0.2456
     48  N         72.4830   12.7200   25.0300 N.3   147  TYR147     -0.1241
     49  CA        72.7570   11.4710   25.7230 C.3   147  TYR147      0.1605
     50  C         73.2390   11.7900   27.1180 C.2   147  TYR147      0.2264
     51  O         74.1520   12.5790   27.2790 O.2   147  TYR147     -0.2867
     52  CB        73.7890   10.6870   24.9340 C.3   147  TYR147      0.0534
     53  CG        74.1150    9.3300   25.4960 C.ar  147  TYR147     -0.0201
     54  CD1       75.3210    9.1040   26.1400 C.ar  147  TYR147     -0.0009
     55  CD2       73.2420    8.2470   25.3320 C.ar  147  TYR147     -0.0009
     56  CE1       75.6640    7.8260   26.6070 C.ar  147  TYR147      0.0417
     57  CE2       73.5770    6.9670   25.7900 C.ar  147  TYR147      0.0417
     58  CZ        74.7900    6.7710   26.4230 C.ar  147  TYR147      0.1957
     59  OH        75.1590    5.5330   26.8620 O.3   147  TYR147     -0.2866
     60  N         73.6780   10.2520   31.4560 N.3   149  ASN149     -0.1240
     61  CA        73.4920    9.3720   32.6080 C.3   149  ASN149      0.1653
     62  C         72.5380   10.0090   33.5930 C.2   149  ASN149      0.2266
     63  O         71.7310    9.3200   34.2150 O.2   149  ASN149     -0.2867
     64  CB        74.8010    9.1160   33.3480 C.3   149  ASN149      0.1155
     65  CG        75.6960    8.1590   32.6280 C.2   149  ASN149      0.2627
     66  OD1       75.2580    7.4070   31.7480 O.2   149  ASN149     -0.2716
     67  ND2       76.9660    8.1580   33.0020 N.am  149  ASN149     -0.0877
     68  N         75.0860    2.6900   34.2600 N.3   218  TYR218     -0.1241
     69  CA        76.1540    1.8980   33.6770 C.3   218  TYR218      0.1605
     70  C         76.7000    0.8340   34.6380 C.2   218  TYR218      0.2264
     71  O         77.7990    0.3050   34.4330 O.2   218  TYR218     -0.2867
     72  CB        77.2720    2.8500   33.2450 C.3   218  TYR218      0.0534
     73  CG        77.7590    3.7550   34.3720 C.ar  218  TYR218     -0.0201
     74  CD1       78.7660    3.3460   35.2440 C.ar  218  TYR218     -0.0009
     75  CD2       77.1710    5.0030   34.5950 C.ar  218  TYR218     -0.0009
     76  CE1       79.1720    4.1690   36.3270 C.ar  218  TYR218      0.0417
     77  CE2       77.5650    5.8250   35.6590 C.ar  218  TYR218      0.0417
     78  CZ        78.5610    5.3970   36.5220 C.ar  218  TYR218      0.1957
     79  OH        78.9110    6.1800   37.6040 O.3   218  TYR218     -0.2866
     80  N         77.5460   11.8090   21.5070 N.3   290  LEU290     -0.1245
     81  CA        77.3610   12.6560   22.6860 C.3   290  LEU290      0.1561
     82  C         76.8910   14.0900   22.4280 C.2   290  LEU290      0.2260
     83  O         76.6310   14.8310   23.3760 O.2   290  LEU290     -0.2867
     84  CB        78.6520   12.6990   23.4880 C.3   290  LEU290      0.0270
     85  CG        79.2420   11.3500   23.8710 C.3   290  LEU290      0.0019
     86  CD1       80.4050   11.6220   24.8220 C.3   290  LEU290      0.0001
     87  CD2       78.2070   10.4640   24.5430 C.3   290  LEU290      0.0001
     88  N         80.5450    1.5680   27.6790 N.3   315  ALA315     -0.1231
     89  CA        81.9350    1.5770   28.1080 C.3   315  ALA315      0.1694
     90  C         82.1310    2.0740   29.5460 C.2   315  ALA315      0.2592
     91  O         81.3480    2.8680   30.0680 O.2   315  ALA315     -0.2718
     92  CB        82.7720    2.4490   27.1510 C.3   315  ALA315      0.0304
     93  N         83.1760    1.5650   30.1790 N.am  316  THR316     -0.1953
     94  CA        83.5630    1.9930   31.5090 C.3   316  THR316      0.1897
     95  C         85.0340    2.3160   31.2950 C.2   316  THR316      0.2313
     96  O         85.5590    2.0720   30.2040 O.2   316  THR316     -0.2863
     97  CB        83.4190    0.8780   32.5550 C.3   316  THR316      0.1794
     98  OG1       84.1000   -0.2990   32.1000 O.3   316  THR316     -0.2208
     99  CG2       81.9390    0.5870   32.8200 C.3   316  THR316      0.0378
@<TRIPOS>BOND
     1    80    81    1
     2    82    81    1
     3    82    83    2
     4    81    84    1
     5    84    85    1
     6    85    87    1
     7    85    86    1
     8    52    53    1
     9    52    49    1
    10    48    49    1
    11    55    53   ar
    12    55    57   ar
    13    53    54   ar
    14    49    50    1
    15    57    58   ar
    16    54    56   ar
    17    58    56   ar
    18    58    59    1
    19    50    51    2
    20    92    89    1
    21    88    89    1
    22    89    90    1
    23     5     6    1
    24     5     2    1
    25     4     3    2
    26    23    21    1
    27     3     2    1
    28    13    14    1
    29    13    12    1
    30    22    21    1
    31    11    12    1
    32    11     8    1
    33     2     1    1
    34     9    10    2
    35     9     8    1
    36    21    20    1
    37    90    91    2
    38    90    93   am
    39    20    17    1
    40    14    15    1
    41     8     7    1
    42    93    94    1
    43    96    95    2
    44    17    16    1
    45    17    18    1
    46    95    94    1
    47    60    61    1
    48    94    97    1
    49    66    65    2
    50    18    19    2
    51    18    24   am
    52    98    97    1
    53    97    99    1
    54    61    64    1
    55    61    62    1
    56    65    67   am
    57    65    64    1
    58    32    30   am
    59    24    25    1
    60    29    30    1
    61    29    28    1
    62    30    31    2
    63    72    69    1
    64    72    73    1
    65    62    63    2
    66    69    68    1
    67    69    70    1
    68    25    28    1
    69    25    26    1
    70    73    75   ar
    71    73    74   ar
    72    71    70    2
    73    75    77   ar
    74    26    27    2
    75    26    33   am
    76    74    76   ar
    77    77    78   ar
    78    33    34    1
    79    76    78   ar
    80    78    79    1
    81    34    35    1
    82    34    37    1
    83    39    37    1
    84    35    36    2
    85    37    38    1
    86    46    45   ar
    87    47    45   ar
    88    45    44    1
    89    40    41    1
    90    44    41    1
    91    41    42    1
    92    42    43    2
