@<TRIPOS>MOLECULE
tmp/1ke3B00.pdb
 99 92 0 0 0
SMALL
GASTEIGER

@<TRIPOS>ATOM
      1  N         76.3560    1.5330   29.4540 N.3    61  SER61      -0.1217
      2  CA        75.0470    2.0240   29.0730 C.3    61  SER61       0.1889
      3  C         74.1160    0.9900   28.4100 C.2    61  SER61       0.2288
      4  O         72.9300    1.2590   28.2160 O.2    61  SER61      -0.2866
      5  CB        75.2010    3.2900   28.2280 C.3    61  SER61       0.2089
      6  OG        75.6030    4.3490   29.0940 O.3    61  SER61      -0.2183
      7  N         70.9990    0.6490   30.1570 N.3    64  LYS64      -0.1245
      8  CA        69.8120    1.4680   29.8680 C.3    64  LYS64       0.1561
      9  C         68.6780    0.6680   29.2040 C.2    64  LYS64       0.2260
     10  O         67.5010    1.0090   29.3600 O.2    64  LYS64      -0.2867
     11  CB        70.1900    2.6790   28.9910 C.3    64  LYS64       0.0271
     12  CG        71.0600    3.7170   29.7400 C.3    64  LYS64       0.0035
     13  CD        71.5680    4.8090   28.8260 C.3    64  LYS64       0.0206
     14  CE        72.3280    5.9000   29.6080 C.3    64  LYS64       0.1093
     15  NZ        73.6210    5.4120   30.1630 N.3    64  LYS64      -0.1314
     16  N         74.9160   14.7740   30.7410 N.3   116  LEU116     -0.1231
     17  CA        75.3740   13.4200   30.4710 C.3   116  LEU116      0.1693
     18  C         75.5720   12.6590   31.7820 C.2   116  LEU116      0.2592
     19  O         75.1320   11.5100   31.9430 O.2   116  LEU116     -0.2718
     20  CB        76.7030   13.4650   29.7090 C.3   116  LEU116      0.0284
     21  CG        77.5080   12.1570   29.7020 C.3   116  LEU116      0.0019
     22  CD1       76.6890   11.0420   29.0770 C.3   116  LEU116      0.0001
     23  CD2       78.7920   12.3480   28.9500 C.3   116  LEU116      0.0001
     24  N         76.2500   13.2970   32.7280 N.am  117  GLN117     -0.1966
     25  CA        76.4770   12.6350   33.9940 C.3   117  GLN117      0.1733
     26  C         76.0080   13.4980   35.1410 C.2   117  GLN117      0.2616
     27  O         75.9240   14.7230   35.0370 O.2   117  GLN117     -0.2715
     28  CB        77.9650   12.3150   34.1710 C.3   117  GLN117      0.0408
     29  CG        78.8540   13.5660   34.2300 C.3   117  GLN117      0.0908
     30  CD        80.3490   13.2590   34.0380 C.2   117  GLN117      0.2608
     31  OE1       80.8500   13.1170   32.9020 O.2   117  GLN117     -0.2717
     32  NE2       81.0660   13.1520   35.1580 N.am  117  GLN117     -0.0878
     33  N         75.6640   12.8270   36.2270 N.am  118  VAL118     -0.1977
     34  CA        75.2840   13.5120   37.4450 C.3   118  VAL118      0.1596
     35  C         76.6750   13.9150   37.9430 C.2   118  VAL118      0.2287
     36  O         77.6040   13.0940   37.9210 O.2   118  VAL118     -0.2864
     37  CB        74.6660   12.5290   38.4560 C.3   118  VAL118      0.0276
     38  CG1       74.2460   13.2680   39.7210 C.3   118  VAL118      0.0022
     39  CG2       73.4900   11.7960   37.8100 C.3   118  VAL118      0.0022
     40  N         79.9710   14.2450   39.8430 N.3   120  ASP120     -0.1239
     41  CA        80.6070   13.3360   40.8080 C.3   120  ASP120      0.1674
     42  C         80.3930   13.7130   42.2700 C.2   120  ASP120      0.2266
     43  O         80.3510   12.8410   43.1290 O.2   120  ASP120     -0.2867
     44  CB        82.1230   13.2700   40.5700 C.3   120  ASP120      0.1410
     45  CG        82.4970   12.4950   39.3140 C.2   120  ASP120      0.3668
     46  OD1       82.4290   11.2450   39.3480 O.co2 120  ASP120     -0.2456
     47  OD2       82.8560   13.1360   38.2940 O.co2 120  ASP120     -0.2456
     48  N         71.6780   12.8310   25.0770 N.3   147  TYR147     -0.1241
     49  CA        71.9810   11.5720   25.7360 C.3   147  TYR147      0.1605
     50  C         72.4100   11.8980   27.1690 C.2   147  TYR147      0.2264
     51  O         73.3470   12.6490   27.3650 O.2   147  TYR147     -0.2867
     52  CB        73.0970   10.8680   24.9530 C.3   147  TYR147      0.0534
     53  CG        73.4640    9.4920   25.4590 C.ar  147  TYR147     -0.0201
     54  CD1       74.7310    9.2370   25.9920 C.ar  147  TYR147     -0.0009
     55  CD2       72.5530    8.4360   25.3970 C.ar  147  TYR147     -0.0009
     56  CE1       75.0800    7.9490   26.4510 C.ar  147  TYR147      0.0417
     57  CE2       72.8920    7.1600   25.8510 C.ar  147  TYR147      0.0417
     58  CZ        74.1570    6.9250   26.3790 C.ar  147  TYR147      0.1957
     59  OH        74.4810    5.6760   26.8650 O.3   147  TYR147     -0.2866
     60  N         72.6860   10.2760   31.4510 N.3   149  ASN149     -0.1240
     61  CA        72.4900    9.3250   32.5510 C.3   149  ASN149      0.1653
     62  C         71.5520   10.0000   33.5420 C.2   149  ASN149      0.2266
     63  O         70.6900    9.3560   34.1320 O.2   149  ASN149     -0.2867
     64  CB        73.8050    9.0400   33.2930 C.3   149  ASN149      0.1155
     65  CG        74.7680    8.1940   32.4990 C.2   149  ASN149      0.2627
     66  OD1       74.3690    7.3930   31.6500 O.2   149  ASN149     -0.2716
     67  ND2       76.0510    8.3310   32.8010 N.am  149  ASN149     -0.0877
     68  N         73.9000    2.6080   34.1560 N.3   218  TYR218     -0.1241
     69  CA        74.9930    1.8490   33.5640 C.3   218  TYR218      0.1605
     70  C         75.5560    0.8050   34.5260 C.2   218  TYR218      0.2264
     71  O         76.6700    0.3010   34.3270 O.2   218  TYR218     -0.2867
     72  CB        76.0830    2.8350   33.1210 C.3   218  TYR218      0.0534
     73  CG        76.6130    3.6810   34.2630 C.ar  218  TYR218     -0.0201
     74  CD1       77.5850    3.1880   35.1300 C.ar  218  TYR218     -0.0009
     75  CD2       76.1030    4.9540   34.5030 C.ar  218  TYR218     -0.0009
     76  CE1       78.0340    3.9470   36.2120 C.ar  218  TYR218      0.0417
     77  CE2       76.5360    5.7190   35.5750 C.ar  218  TYR218      0.0417
     78  CZ        77.5040    5.2090   36.4310 C.ar  218  TYR218      0.1957
     79  OH        77.9100    5.9530   37.5130 O.3   218  TYR218     -0.2866
     80  N         76.8550   11.8890   21.4870 N.3   290  LEU290     -0.1245
     81  CA        76.7260   12.7170   22.6820 C.3   290  LEU290      0.1561
     82  C         76.2080   14.1450   22.4790 C.2   290  LEU290      0.2260
     83  O         75.8840   14.8300   23.4570 O.2   290  LEU290     -0.2867
     84  CB        78.0690   12.7970   23.3960 C.3   290  LEU290      0.0270
     85  CG        78.6280   11.4500   23.8200 C.3   290  LEU290      0.0019
     86  CD1       79.8660   11.7210   24.6900 C.3   290  LEU290      0.0001
     87  CD2       77.5850   10.6460   24.5980 C.3   290  LEU290      0.0001
     88  N         79.6090    1.5560   27.6180 N.3   315  ALA315     -0.1231
     89  CA        81.0010    1.5820   28.0370 C.3   315  ALA315      0.1694
     90  C         81.1570    2.0610   29.4690 C.2   315  ALA315      0.2592
     91  O         80.3040    2.7750   30.0100 O.2   315  ALA315     -0.2718
     92  CB        81.8140    2.4820   27.1060 C.3   315  ALA315      0.0304
     93  N         82.2300    1.6070   30.0880 N.am  316  THR316     -0.1953
     94  CA        82.5860    2.0590   31.4100 C.3   316  THR316      0.1897
     95  C         84.0620    2.3050   31.1640 C.2   316  THR316      0.2313
     96  O         84.5570    2.0380   30.0570 O.2   316  THR316     -0.2863
     97  CB        82.4200    0.9860   32.4720 C.3   316  THR316      0.1794
     98  OG1       83.1840   -0.1640   32.0960 O.3   316  THR316     -0.2208
     99  CG2       80.9290    0.6310   32.6640 C.3   316  THR316      0.0378
@<TRIPOS>BOND
     1    80    81    1
     2    82    81    1
     3    82    83    2
     4    81    84    1
     5    84    85    1
     6    85    87    1
     7    85    86    1
     8    52    53    1
     9    52    49    1
    10    48    49    1
    11    55    53   ar
    12    55    57   ar
    13    53    54   ar
    14    49    50    1
    15    57    58   ar
    16    54    56   ar
    17    58    56   ar
    18    58    59    1
    19    92    89    1
    20    50    51    2
    21    88    89    1
    22    89    90    1
    23     4     3    2
    24     5     2    1
    25     5     6    1
    26     3     2    1
    27    13    14    1
    28    13    12    1
    29    23    21    1
    30    11    12    1
    31    11     8    1
    32     2     1    1
    33    22    21    1
    34     9    10    2
    35     9     8    1
    36    90    91    2
    37    90    93   am
    38    14    15    1
    39    21    20    1
    40    20    17    1
    41     8     7    1
    42    96    95    2
    43    93    94    1
    44    17    16    1
    45    17    18    1
    46    95    94    1
    47    94    97    1
    48    60    61    1
    49    66    65    2
    50    18    19    2
    51    18    24   am
    52    98    97    1
    53    97    99    1
    54    65    67   am
    55    65    64    1
    56    61    64    1
    57    61    62    1
    58    24    25    1
    59    31    30    2
    60    72    69    1
    61    72    73    1
    62    62    63    2
    63    69    68    1
    64    69    70    1
    65    25    28    1
    66    25    26    1
    67    30    29    1
    68    30    32   am
    69    28    29    1
    70    73    75   ar
    71    73    74   ar
    72    71    70    2
    73    75    77   ar
    74    27    26    2
    75    74    76   ar
    76    26    33   am
    77    77    78   ar
    78    76    78   ar
    79    33    34    1
    80    78    79    1
    81    34    35    1
    82    34    37    1
    83    39    37    1
    84    36    35    2
    85    47    45   ar
    86    37    38    1
    87    45    46   ar
    88    45    44    1
    89    40    41    1
    90    44    41    1
    91    41    42    1
    92    42    43    2
