@<TRIPOS>MOLECULE
tmp/1ke6A00.pdb
 166 158 0 0 0
SMALL
GASTEIGER

@<TRIPOS>ATOM
      1  N         22.6740    6.8050   14.3040 N.3    10  ILE10      -0.1231
      2  CA        23.6740    7.2020   13.3240 C.3    10  ILE10       0.1692
      3  C         24.9710    6.4080   13.4630 C.2    10  ILE10       0.2592
      4  O         25.7740    6.3490   12.5300 O.2    10  ILE10      -0.2718
      5  CB        23.9820    8.7080   13.4560 C.3    10  ILE10       0.0266
      6  CG1       22.7210    9.5230   13.1630 C.3    10  ILE10       0.0019
      7  CG2       25.0870    9.1020   12.5090 C.3    10  ILE10       0.0020
      8  CD1       22.8970   11.0170   13.3650 C.3    10  ILE10       0.0001
      9  N         25.1790    5.8040   14.6290 N.am   11  GLY11      -0.1957
     10  CA        26.3800    5.0170   14.8390 C.3    11  GLY11       0.1869
     11  C         27.0210    5.1930   16.1990 C.2    11  GLY11       0.2309
     12  O         26.9710    6.2740   16.7830 O.2    11  GLY11      -0.2863
     13  N         30.0150    5.6600   18.7900 N.3    13  GLY13      -0.1225
     14  CA        31.2960    6.3360   18.7380 C.3    13  GLY13       0.1811
     15  C         32.1960    5.9630   19.8970 C.2    13  GLY13       0.2280
     16  O         31.8790    5.0720   20.6850 O.2    13  GLY13      -0.2866
     17  N         25.3410    8.0010   18.7530 N.3    18  VAL18      -0.1245
     18  CA        24.8090    9.1950   18.1120 C.3    18  VAL18       0.1561
     19  C         23.5060    8.8670   17.4020 C.2    18  VAL18       0.2260
     20  O         23.4150    7.8760   16.6790 O.2    18  VAL18      -0.2867
     21  CB        25.8120    9.7800   17.0880 C.3    18  VAL18       0.0252
     22  CG1       25.2370   11.0350   16.4550 C.3    18  VAL18       0.0019
     23  CG2       27.1320   10.0980   17.7750 C.3    18  VAL18       0.0019
     24  N         21.7690   16.1240   15.6890 N.3    31  ALA31      -0.1245
     25  CA        22.5180   14.9060   15.9710 C.3    31  ALA31       0.1562
     26  C         22.6450   14.8640   17.4900 C.2    31  ALA31       0.2260
     27  O         23.3140   15.7090   18.0870 O.2    31  ALA31      -0.2867
     28  CB        23.8930   14.9640   15.3290 C.3    31  ALA31       0.0290
     29  N         24.0310   13.1300   20.7590 N.3    33  LYS33      -0.1245
     30  CA        25.0710   12.2200   21.2120 C.3    33  LYS33       0.1561
     31  C         24.9510   11.9680   22.7060 C.2    33  LYS33       0.2260
     32  O         25.0760   12.8920   23.5090 O.2    33  LYS33      -0.2867
     33  CB        26.4490   12.8070   20.8930 C.3    33  LYS33       0.0271
     34  CG        27.6280   11.9090   21.2360 C.3    33  LYS33       0.0035
     35  CD        28.9400   12.6140   20.9150 C.3    33  LYS33       0.0206
     36  CE        30.1470   11.7190   21.1680 C.3    33  LYS33       0.1093
     37  NZ        30.1710   10.5400   20.2570 N.3    33  LYS33      -0.1314
     38  N         31.6910   21.0780   12.9210 N.3    57  VAL57      -0.1245
     39  CA        30.3040   20.7460   13.2330 C.3    57  VAL57       0.1561
     40  C         29.9280   21.4820   14.5200 C.2    57  VAL57       0.2260
     41  O         30.5300   21.2820   15.5750 O.2    57  VAL57      -0.2867
     42  CB        30.1120   19.2290   13.4100 C.3    57  VAL57       0.0252
     43  CG1       28.6760   18.9200   13.7920 C.3    57  VAL57       0.0019
     44  CG2       30.4680   18.5200   12.1090 C.3    57  VAL57       0.0019
     45  N         24.3920   18.3070   18.4600 N.3    73  PHE73      -0.1227
     46  CA        25.1800   18.8700   17.3640 C.3    73  PHE73       0.1736
     47  C         24.3200   19.1560   16.1360 C.2    73  PHE73       0.2595
     48  O         23.2110   18.6350   16.0090 O.2    73  PHE73      -0.2718
     49  CB        26.2790   17.8950   16.9370 C.3    73  PHE73       0.0547
     50  CG        27.3720   17.7120   17.9490 C.ar   73  PHE73      -0.0202
     51  CD1       27.3390   16.6510   18.8460 C.ar   73  PHE73      -0.0042
     52  CD2       28.4610   18.5770   17.9730 C.ar   73  PHE73      -0.0042
     53  CE1       28.3820   16.4500   19.7510 C.ar   73  PHE73      -0.0003
     54  CE2       29.5040   18.3870   18.8700 C.ar   73  PHE73      -0.0003
     55  CZ        29.4670   17.3230   19.7590 C.ar   73  PHE73      -0.0000
     56  N         24.8340   19.9830   15.2290 N.am   74  GLU74      -0.1965
     57  CA        24.1070   20.2630   14.0020 C.3    74  GLU74       0.1733
     58  C         24.1720   18.9490   13.2310 C.2    74  GLU74       0.2616
     59  O         25.1030   18.1590   13.4120 O.2    74  GLU74      -0.2715
     60  CB        24.7680   21.3990   13.2030 C.3    74  GLU74       0.0429
     61  CG        26.0920   21.0560   12.5640 C.3    74  GLU74       0.1163
     62  CD        26.6010   22.1470   11.6270 C.2    74  GLU74       0.3649
     63  OE1       25.9570   22.4060   10.5900 O.co2  74  GLU74      -0.2457
     64  OE2       27.6510   22.7430   11.9200 O.co2  74  GLU74      -0.2457
     65  N         23.1850   18.7080   12.3810 N.am   75  PHE75      -0.1960
     66  CA        23.1180   17.4620   11.6210 C.3    75  PHE75       0.1771
     67  C         23.4880   17.5850   10.1390 C.2    75  PHE75       0.2619
     68  O         23.0730   18.5320    9.4710 O.2    75  PHE75      -0.2715
     69  CB        21.7000   16.8890   11.7360 C.3    75  PHE75       0.0574
     70  CG        21.4820   15.6370   10.9390 C.ar   75  PHE75      -0.0200
     71  CD1       21.9000   14.3990   11.4280 C.ar   75  PHE75      -0.0042
     72  CD2       20.8630   15.6910    9.6970 C.ar   75  PHE75      -0.0042
     73  CE1       21.7030   13.2370   10.6910 C.ar   75  PHE75      -0.0003
     74  CE2       20.6630   14.5300    8.9510 C.ar   75  PHE75      -0.0003
     75  CZ        21.0860   13.3030    9.4500 C.ar   75  PHE75      -0.0000
     76  N         24.2780   16.6300    9.6440 N.am   76  LEU76      -0.1963
     77  CA        24.6630   16.5700    8.2310 C.3    76  LEU76       0.1728
     78  C         24.3210   15.1530    7.7870 C.2    76  LEU76       0.2616
     79  O         24.4870   14.2040    8.5550 O.2    76  LEU76      -0.2715
     80  CB        26.1540   16.8630    8.0110 C.3    76  LEU76       0.0311
     81  CG        26.5470   18.3400    8.1160 C.3    76  LEU76       0.0022
     82  CD1       26.8330   18.6650    9.5670 C.3    76  LEU76       0.0001
     83  CD2       27.7820   18.6350    7.2670 C.3    76  LEU76       0.0001
     84  N         23.8570   15.0110    6.5500 N.am   77  HIS77      -0.1959
     85  CA        23.4050   13.7200    6.0380 C.3    77  HIS77       0.1787
     86  C         24.3820   12.6040    5.6950 C.2    77  HIS77       0.2620
     87  O         23.9770   11.4450    5.6370 O.2    77  HIS77      -0.2715
     88  CB        22.4950   13.9450    4.8230 C.3    77  HIS77       0.0785
     89  CG        21.2160   14.6490    5.1520 C.ar   77  HIS77       0.0821
     90  ND1       21.1430   16.0120    5.3460 N.ar   77  HIS77      -0.2267
     91  CD2       19.9670   14.1710    5.3710 C.ar   77  HIS77       0.1154
     92  CE1       19.9060   16.3440    5.6720 C.ar   77  HIS77       0.1986
     93  NE2       19.1720   15.2450    5.6940 N.ar   77  HIS77      -0.2212
     94  N         25.6550   12.9120    5.4850 N.am   78  GLN78      -0.1963
     95  CA        26.5810   11.8500    5.1070 C.3    78  GLN78       0.1733
     96  C         28.0050   12.0830    5.5960 C.2    78  GLN78       0.2616
     97  O         28.4170   13.2240    5.7770 O.2    78  GLN78      -0.2715
     98  CB        26.5750   11.7380    3.5840 C.3    78  GLN78       0.0408
     99  CG        27.0330   10.4150    3.0230 C.3    78  GLN78       0.0908
    100  CD        26.7640   10.3290    1.5350 C.2    78  GLN78       0.2608
    101  OE1       27.6480   10.5760    0.7130 O.2    78  GLN78      -0.2717
    102  NE2       25.5260    9.9980    1.1800 N.am   78  GLN78      -0.0878
    103  N         28.7480   11.0010    5.8320 N.am   79  ASP79      -0.1971
    104  CA        30.1410   11.1430    6.2500 C.3    79  ASP79       0.1709
    105  C         31.0360   10.8290    5.0510 C.2    79  ASP79       0.2293
    106  O         30.5800   10.2390    4.0660 O.2    79  ASP79      -0.2864
    107  CB        30.4850   10.2270    7.4360 C.3    79  ASP79       0.1436
    108  CG        30.3590    8.7430    7.1160 C.2    79  ASP79       0.3671
    109  OD1       30.8140    8.2940    6.0440 O.co2  79  ASP79      -0.2456
    110  OD2       29.8150    8.0140    7.9670 O.co2  79  ASP79      -0.2456
    111  N         33.4550    8.6830    4.7660 N.3    81  LYS81      -0.1231
    112  CA        33.6360    7.2460    4.5720 C.3    81  LYS81       0.1693
    113  C         32.5680    6.7050    3.6210 C.2    81  LYS81       0.2591
    114  O         32.8780    5.9980    2.6590 O.2    81  LYS81      -0.2718
    115  CB        33.5510    6.5080    5.9150 C.3    81  LYS81       0.0285
    116  CG        33.6110    4.9830    5.7980 C.3    81  LYS81       0.0035
    117  CD        34.9120    4.5200    5.1470 C.3    81  LYS81       0.0206
    118  CE        34.9550    3.0030    4.9740 C.3    81  LYS81       0.1093
    119  NZ        34.7690    2.2880    6.2710 N.3    81  LYS81      -0.1314
    120  N         31.3110    7.0430    3.8890 N.am   82  LYS82      -0.1980
    121  CA        30.2090    6.5830    3.0500 C.3    82  LYS82       0.1596
    122  C         30.3460    7.1330    1.6360 C.2    82  LYS82       0.2287
    123  O         30.0620    6.4440    0.6580 O.2    82  LYS82      -0.2864
    124  CB        28.8690    7.0140    3.6540 C.3    82  LYS82       0.0298
    125  CG        27.6720    6.7620    2.7530 C.3    82  LYS82       0.0038
    126  CD        27.5650    5.2940    2.3820 C.3    82  LYS82       0.0206
    127  CE        26.4250    5.0600    1.4010 C.3    82  LYS82       0.1093
    128  NZ        26.4320    3.6580    0.8910 N.3    82  LYS82      -0.1314
    129  N         35.1600    8.6840    9.1040 N.3   124  GLN124     -0.1231
    130  CA        33.8620    8.6400    9.7650 C.3   124  GLN124      0.1698
    131  C         33.5180    9.9270   10.5310 C.2   124  GLN124      0.2592
    132  O         32.3460   10.2020   10.7970 O.2   124  GLN124     -0.2718
    133  CB        33.7950    7.4300   10.7110 C.3   124  GLN124      0.0381
    134  CG        33.8870    6.0920    9.9840 C.3   124  GLN124      0.0905
    135  CD        35.3180    5.5630    9.8140 C.2   124  GLN124      0.2608
    136  OE1       36.2700    6.3120    9.5710 O.2   124  GLN124     -0.2717
    137  NE2       35.4610    4.2470    9.9230 N.am  124  GLN124     -0.0878
    138  N         34.5380   10.7140   10.8720 N.am  125  ASN125     -0.1974
    139  CA        34.3600   11.9680   11.6040 C.3   125  ASN125      0.1688
    140  C         34.2420   13.2000   10.7030 C.2   125  ASN125      0.2292
    141  O         34.1220   14.3190   11.1990 O.2   125  ASN125     -0.2864
    142  CB        35.5360   12.2030   12.5680 C.3   125  ASN125      0.1181
    143  CG        35.4790   11.3150   13.7850 C.2   125  ASN125      0.2629
    144  OD1       34.4460   10.7040   14.0750 O.2   125  ASN125     -0.2716
    145  ND2       36.5840   11.2460   14.5190 N.am  125  ASN125     -0.0877
    146  N         32.0710   15.1220    7.9530 N.3   127  LEU127     -0.1245
    147  CA        30.7170   15.2000    7.4200 C.3   127  LEU127      0.1561
    148  C         30.5790   16.1540    6.2400 C.2   127  LEU127      0.2260
    149  O         31.1490   17.2450    6.2410 O.2   127  LEU127     -0.2867
    150  CB        29.7720   15.6120    8.5540 C.3   127  LEU127      0.0270
    151  CG        29.9380   14.7290    9.7980 C.3   127  LEU127      0.0019
    152  CD1       29.0270   15.2270   10.9140 C.3   127  LEU127      0.0001
    153  CD2       29.6150   13.2810    9.4500 C.3   127  LEU127      0.0001
    154  N         33.8970   16.7000   12.9070 N.3   137  ALA137     -0.1231
    155  CA        33.0390   16.3720   14.0510 C.3   137  ALA137      0.1694
    156  C         33.9020   15.7520   15.1570 C.2   137  ALA137      0.2592
    157  O         34.9170   15.1380   14.8640 O.2   137  ALA137     -0.2718
    158  CB        31.9520   15.3930   13.6230 C.3   137  ALA137      0.0304
    159  N         33.5050   15.9260   16.4220 N.am  138  ASP138     -0.1974
    160  CA        34.2450   15.3890   17.5710 C.3   138  ASP138      0.1709
    161  C         35.4350   16.2240   18.0280 C.2   138  ASP138      0.2293
    162  O         36.2260   15.7810   18.8610 O.2   138  ASP138     -0.2864
    163  CB        34.7180   13.9550   17.3050 C.3   138  ASP138      0.1436
    164  CG        33.6820   12.9230   17.6910 C.2   138  ASP138      0.3671
    165  OD1       33.0820   13.0750   18.7720 O.co2 138  ASP138     -0.2456
    166  OD2       33.4650   11.9520   16.9350 O.co2 138  ASP138     -0.2456
@<TRIPOS>BOND
     1   123   122    2
     2   101   100    2
     3   128   127    1
     4   102   100   am
     5   127   126    1
     6   100    99    1
     7   122   121    1
     8   126   125    1
     9   114   113    2
    10   125   124    1
    11    99    98    1
    12   121   124    1
    13   121   120    1
    14    98    95    1
    15   113   120   am
    16   113   112    1
    17   106   105    2
    18   112   111    1
    19   112   115    1
    20    88    89    1
    21    88    85    1
    22   118   117    1
    23   118   119    1
    24   105   104    1
    25    95    94    1
    26    95    96    1
    27   117   116    1
    28    89    90   ar
    29    89    91   ar
    30    90    92   ar
    31    91    93   ar
    32    94    86   am
    33    96    97    2
    34    96   103   am
    35    87    86    2
    36    92    93   ar
    37    86    85    1
    38   116   115    1
    39   103   104    1
    40    85    84    1
    41   109   108   ar
    42   148   149    2
    43   148   147    1
    44   104   107    1
    45    84    78   am
    46   108   107    1
    47   108   110   ar
    48    83    81    1
    49   147   146    1
    50   147   150    1
    51    78    77    1
    52    78    79    2
    53    80    81    1
    54    80    77    1
    55    81    82    1
    56    77    76    1
    57   150   151    1
    58    74    75   ar
    59    74    72   ar
    60   129   130    1
    61   153   151    1
    62    75    73   ar
    63    68    67    2
    64   136   135    2
    65    76    67   am
    66    72    70   ar
    67   130   131    1
    68   130   133    1
    69   151   152    1
    70   135   137   am
    71   135   134    1
    72   134   133    1
    73    67    66    1
    74   131   132    2
    75   131   138   am
    76    63    62   ar
    77    73    71   ar
    78   140   141    2
    79   140   139    1
    80   138   139    1
    81    70    71   ar
    82    70    69    1
    83   139   142    1
    84    66    69    1
    85    66    65    1
    86    62    64   ar
    87    62    61    1
    88    44    42    1
    89    65    58   am
    90     7     5    1
    91     4     3    2
    92    61    60    1
    93   142   143    1
    94   154   155    1
    95    38    39    1
    96     6     8    1
    97     6     5    1
    98    60    57    1
    99    58    59    2
   100    58    57    1
   101    39    42    1
   102    39    40    1
   103     2     5    1
   104     2     3    1
   105     2     1    1
   106    42    43    1
   107     3     9   am
   108   158   155    1
   109   143   144    2
   110   143   145   am
   111    57    56    1
   112   155   156    1
   113    40    41    2
   114     9    10    1
   115    10    11    1
   116   157   156    2
   117   156   159   am
   118    56    47   am
   119    28    25    1
   120    24    25    1
   121    25    26    1
   122    48    47    2
   123    47    46    1
   124    11    12    2
   125   159   160    1
   126    22    21    1
   127    20    19    2
   128   166   164   ar
   129    49    46    1
   130    49    50    1
   131    21    23    1
   132    21    18    1
   133   163   160    1
   134   163   164    1
   135    46    45    1
   136    19    18    1
   137    26    27    2
   138   160   161    1
   139   164   165   ar
   140    50    52   ar
   141    50    51   ar
   142    52    54   ar
   143   161   162    2
   144    18    17    1
   145    14    13    1
   146    14    15    1
   147    51    53   ar
   148    54    55   ar
   149    53    55   ar
   150    15    16    2
   151    37    36    1
   152    29    30    1
   153    33    30    1
   154    33    34    1
   155    35    36    1
   156    35    34    1
   157    30    31    1
   158    31    32    2
