@<TRIPOS>MOLECULE
tmp/1ke7A00.pdb
 187 177 0 0 0
SMALL
GASTEIGER

@<TRIPOS>ATOM
      1  N        -19.6650   44.7890   14.0920 N.3     8  GLU8       -0.1245
      2  CA       -18.8100   43.6550   13.7560 C.3     8  GLU8        0.1567
      3  C        -17.5260   43.6810   14.5640 C.2     8  GLU8        0.2260
      4  O        -17.1420   44.7120   15.1130 O.2     8  GLU8       -0.2867
      5  CB       -18.4140   43.6750   12.2780 C.3     8  GLU8        0.0388
      6  CG       -19.5490   43.6800   11.2870 C.3     8  GLU8        0.1160
      7  CD       -19.0520   43.5420    9.8610 C.2     8  GLU8        0.3649
      8  OE1      -18.1400   44.3050    9.4690 O.co2   8  GLU8       -0.2457
      9  OE2      -19.5750   42.6700    9.1330 O.co2   8  GLU8       -0.2457
     10  N        -13.8780   43.8180   14.3050 N.3    10  ILE10      -0.1245
     11  CA       -12.8840   44.1760   13.3050 C.3    10  ILE10       0.1561
     12  C        -11.6190   43.3320   13.4160 C.2    10  ILE10       0.2260
     13  O        -10.9130   43.1330   12.4280 O.2    10  ILE10      -0.2867
     14  CB       -12.5150   45.6720   13.4150 C.3    10  ILE10       0.0252
     15  CG1      -13.7580   46.5300   13.1690 C.3    10  ILE10       0.0019
     16  CG2      -11.4250   46.0210   12.4170 C.3    10  ILE10       0.0019
     17  CD1      -14.4450   46.2620   11.8380 C.3    10  ILE10       0.0001
     18  N         -8.6870   41.1630   16.5310 N.3    12  GLU12      -0.1231
     19  CA        -7.9890   41.1650   17.8120 C.3    12  GLU12       0.1699
     20  C         -6.6890   41.9540   17.7120 C.2    12  GLU12       0.2593
     21  O         -5.8610   41.6980   16.8380 O.2    12  GLU12      -0.2718
     22  CB        -7.6810   39.7310   18.2640 C.3    12  GLU12       0.0402
     23  CG        -8.8780   38.9480   18.8060 C.3    12  GLU12       0.1161
     24  CD        -9.9290   38.6470   17.7490 C.2    12  GLU12       0.3649
     25  OE1       -9.5800   38.0400   16.7120 O.co2  12  GLU12      -0.2457
     26  OE2      -11.1080   39.0100   17.9600 O.co2  12  GLU12      -0.2457
     27  N         -6.5160   42.9150   18.6130 N.am   13  GLY13      -0.1942
     28  CA        -5.3140   43.7260   18.6050 C.3    13  GLY13       0.2014
     29  C         -4.2820   43.2510   19.6080 C.2    13  GLY13       0.2639
     30  O         -4.4330   42.1880   20.2100 O.2    13  GLY13      -0.2714
     31  N         -3.2330   44.0460   19.7890 N.am   14  THR14      -0.1950
     32  CA        -2.1600   43.7160   20.7210 C.3    14  THR14       0.1897
     33  C         -2.5820   43.9680   22.1650 C.2    14  THR14       0.2313
     34  O         -2.0750   43.3280   23.0880 O.2    14  THR14      -0.2863
     35  CB        -0.8940   44.5560   20.4350 C.3    14  THR14       0.1794
     36  OG1       -0.5120   44.4000   19.0620 O.3    14  THR14      -0.2208
     37  CG2        0.2560   44.1080   21.3340 C.3    14  THR14       0.0378
     38  N        -11.0620   44.9110   18.7830 N.3    18  VAL18      -0.1245
     39  CA       -11.5910   46.1020   18.1340 C.3    18  VAL18       0.1561
     40  C        -12.9100   45.7740   17.4480 C.2    18  VAL18       0.2260
     41  O        -13.0110   44.7860   16.7260 O.2    18  VAL18      -0.2867
     42  CB       -10.6030   46.6480   17.0820 C.3    18  VAL18       0.0252
     43  CG1      -11.1640   47.9020   16.4430 C.3    18  VAL18       0.0019
     44  CG2       -9.2650   46.9500   17.7310 C.3    18  VAL18       0.0019
     45  N        -14.5560   53.0140   15.7300 N.3    31  ALA31      -0.1245
     46  CA       -13.8080   51.8000   16.0070 C.3    31  ALA31       0.1562
     47  C        -13.7010   51.7450   17.5260 C.2    31  ALA31       0.2260
     48  O        -13.0420   52.5880   18.1370 O.2    31  ALA31      -0.2867
     49  CB       -12.4240   51.8740   15.3840 C.3    31  ALA31       0.0290
     50  N        -12.3390   50.0100   20.8090 N.3    33  LYS33      -0.1245
     51  CA       -11.2910   49.1030   21.2570 C.3    33  LYS33       0.1561
     52  C        -11.4330   48.8000   22.7470 C.2    33  LYS33       0.2260
     53  O        -11.3160   49.6920   23.5870 O.2    33  LYS33      -0.2867
     54  CB        -9.9230   49.7260   20.9720 C.3    33  LYS33       0.0271
     55  CG        -8.7180   48.8380   21.2480 C.3    33  LYS33       0.0035
     56  CD        -7.4420   49.6040   20.9150 C.3    33  LYS33       0.0206
     57  CE        -6.2010   48.7480   21.0510 C.3    33  LYS33       0.1093
     58  NZ        -6.2230   47.6160   20.0920 N.3    33  LYS33      -0.1314
     59  N         -4.6660   57.9600   12.8700 N.3    57  VAL57      -0.1245
     60  CA        -6.0370   57.5990   13.2070 C.3    57  VAL57       0.1561
     61  C         -6.3840   58.3040   14.5160 C.2    57  VAL57       0.2260
     62  O         -5.7980   58.0360   15.5650 O.2    57  VAL57      -0.2867
     63  CB        -6.1990   56.0780   13.3870 C.3    57  VAL57       0.0252
     64  CG1       -7.6250   55.7540   13.8140 C.3    57  VAL57       0.0019
     65  CG2       -5.8570   55.3660   12.0880 C.3    57  VAL57       0.0019
     66  N        -11.8540   55.1670   18.4870 N.3    73  PHE73      -0.1227
     67  CA       -11.0700   55.7190   17.3810 C.3    73  PHE73       0.1736
     68  C        -11.9410   56.0190   16.1560 C.2    73  PHE73       0.2595
     69  O        -13.0530   55.4980   16.0300 O.2    73  PHE73      -0.2718
     70  CB        -9.9780   54.7300   16.9450 C.3    73  PHE73       0.0547
     71  CG        -8.9070   54.4840   17.9780 C.ar   73  PHE73      -0.0202
     72  CD1       -8.9460   53.3530   18.7860 C.ar   73  PHE73      -0.0042
     73  CD2       -7.8300   55.3590   18.1050 C.ar   73  PHE73      -0.0042
     74  CE1       -7.9240   53.0910   19.7030 C.ar   73  PHE73      -0.0003
     75  CE2       -6.8050   55.1080   19.0190 C.ar   73  PHE73      -0.0003
     76  CZ        -6.8510   53.9730   19.8170 C.ar   73  PHE73      -0.0000
     77  N        -11.4320   56.8550   15.2540 N.am   74  GLU74      -0.1965
     78  CA       -12.1660   57.1570   14.0310 C.3    74  GLU74       0.1733
     79  C        -12.1240   55.8590   13.2250 C.2    74  GLU74       0.2616
     80  O        -11.1870   55.0720   13.3490 O.2    74  GLU74      -0.2715
     81  CB       -11.5090   58.3010   13.2410 C.3    74  GLU74       0.0429
     82  CG       -10.1870   57.9570   12.5910 C.3    74  GLU74       0.1163
     83  CD        -9.6680   59.0630   11.6800 C.2    74  GLU74       0.3649
     84  OE1      -10.3070   59.3520   10.6480 O.co2  74  GLU74      -0.2457
     85  OE2       -8.6150   59.6440   11.9920 O.co2  74  GLU74      -0.2457
     86  N        -13.1320   55.6410   12.3950 N.am   75  PHE75      -0.1960
     87  CA       -13.2390   54.4100   11.6210 C.3    75  PHE75       0.1771
     88  C        -12.8640   54.5260   10.1450 C.2    75  PHE75       0.2619
     89  O        -13.3040   55.4500    9.4620 O.2    75  PHE75      -0.2715
     90  CB       -14.6780   53.8920   11.7280 C.3    75  PHE75       0.0574
     91  CG       -14.9250   52.6130   10.9850 C.ar   75  PHE75      -0.0200
     92  CD1      -14.5870   51.3850   11.5530 C.ar   75  PHE75      -0.0042
     93  CD2      -15.4850   52.6330    9.7140 C.ar   75  PHE75      -0.0042
     94  CE1      -14.8030   50.1980   10.8660 C.ar   75  PHE75      -0.0003
     95  CE2      -15.7050   51.4490    9.0170 C.ar   75  PHE75      -0.0003
     96  CZ       -15.3630   50.2280    9.5950 C.ar   75  PHE75      -0.0000
     97  N        -12.0590   53.5770    9.6680 N.am   76  LEU76      -0.1963
     98  CA       -11.6550   53.5120    8.2610 C.3    76  LEU76       0.1728
     99  C        -12.0040   52.1030    7.7960 C.2    76  LEU76       0.2616
    100  O        -11.8550   51.1520    8.5550 O.2    76  LEU76      -0.2715
    101  CB       -10.1560   53.7830    8.0860 C.3    76  LEU76       0.0311
    102  CG        -9.7550   55.2620    8.0690 C.3    76  LEU76       0.0022
    103  CD1       -9.4740   55.7220    9.4900 C.3    76  LEU76       0.0001
    104  CD2       -8.5120   55.4650    7.2030 C.3    76  LEU76       0.0001
    105  N        -12.4550   51.9650    6.5530 N.am   77  HIS77      -0.1959
    106  CA       -12.8900   50.6620    6.0370 C.3    77  HIS77       0.1787
    107  C        -11.8960   49.5520    5.7210 C.2    77  HIS77       0.2620
    108  O        -12.2600   48.3730    5.7670 O.2    77  HIS77      -0.2715
    109  CB       -13.7680   50.8650    4.7970 C.3    77  HIS77       0.0785
    110  CG       -15.0950   51.4890    5.0970 C.ar   77  HIS77       0.0821
    111  ND1      -15.2420   52.8320    5.3650 N.ar   77  HIS77      -0.2267
    112  CD2      -16.3300   50.9450    5.2080 C.ar   77  HIS77       0.1154
    113  CE1      -16.5100   53.0900    5.6280 C.ar   77  HIS77       0.1986
    114  NE2      -17.1920   51.9620    5.5390 N.ar   77  HIS77      -0.2212
    115  N        -10.6530   49.8930    5.4070 N.am   78  GLN78      -0.1963
    116  CA        -9.7040   48.8510    5.0460 C.3    78  GLN78       0.1733
    117  C         -8.2920   49.1000    5.5610 C.2    78  GLN78       0.2616
    118  O         -7.8900   50.2440    5.7690 O.2    78  GLN78      -0.2715
    119  CB        -9.6810   48.7220    3.5230 C.3    78  GLN78       0.0408
    120  CG        -9.2880   47.3600    3.0010 C.3    78  GLN78       0.0908
    121  CD        -9.6030   47.2130    1.5250 C.2    78  GLN78       0.2608
    122  OE1       -8.7520   47.4480    0.6640 O.2    78  GLN78      -0.2717
    123  NE2      -10.8440   46.8440    1.2240 N.am   78  GLN78      -0.0878
    124  N         -7.5510   48.0190    5.7850 N.am   79  ASP79      -0.1971
    125  CA        -6.1690   48.1410    6.2380 C.3    79  ASP79       0.1709
    126  C         -5.2720   47.7570    5.0600 C.2    79  ASP79       0.2293
    127  O         -5.7400   47.1600    4.0880 O.2    79  ASP79      -0.2864
    128  CB        -5.9170   47.2570    7.4700 C.3    79  ASP79       0.1436
    129  CG        -6.0250   45.7660    7.1770 C.2    79  ASP79       0.3671
    130  OD1       -6.4250   45.0250    8.0980 O.co2  79  ASP79      -0.2456
    131  OD2       -5.6960   45.3250    6.0530 O.co2  79  ASP79      -0.2456
    132  N         -5.0580   43.8400    3.8850 N.3    82  LYS82      -0.1245
    133  CA        -6.1310   43.3640    3.0090 C.3    82  LYS82       0.1561
    134  C         -6.0020   43.9290    1.5980 C.2    82  LYS82       0.2260
    135  O         -6.2490   43.2310    0.6120 O.2    82  LYS82      -0.2867
    136  CB        -7.5110   43.7360    3.5620 C.3    82  LYS82       0.0271
    137  CG        -8.6450   43.3220    2.6190 C.3    82  LYS82       0.0035
    138  CD       -10.0140   43.7590    3.1130 C.3    82  LYS82       0.0206
    139  CE       -11.1110   43.3910    2.1130 C.3    82  LYS82       0.1093
    140  NZ       -12.4700   43.8120    2.5860 N.3    82  LYS82      -0.1314
    141  N          2.9940   47.6550   11.4350 N.3   122  LYS122     -0.1245
    142  CA         2.7890   46.4930   10.5850 C.3   122  LYS122      0.1561
    143  C          1.6090   46.7980    9.6660 C.2   122  LYS122      0.2260
    144  O          0.7620   47.6300    9.9930 O.2   122  LYS122     -0.2867
    145  CB         2.5360   45.2330   11.4230 C.3   122  LYS122      0.0271
    146  CG         1.4000   45.3280   12.4210 C.3   122  LYS122      0.0035
    147  CD         1.2840   44.0090   13.1760 C.3   122  LYS122      0.0206
    148  CE         0.2770   44.0810   14.3060 C.3   122  LYS122      0.1093
    149  NZ         0.6780   45.1010   15.3090 N.3   122  LYS122     -0.1314
    150  N         -1.1940   45.6130    9.1470 N.3   124  GLN124     -0.1231
    151  CA        -2.4790   45.5790    9.8360 C.3   124  GLN124      0.1698
    152  C         -2.8220   46.8940   10.5300 C.2   124  GLN124      0.2592
    153  O         -3.9920   47.1900   10.7450 O.2   124  GLN124     -0.2718
    154  CB        -2.4900   44.4590   10.8860 C.3   124  GLN124      0.0381
    155  CG        -2.3710   43.0310   10.3480 C.3   124  GLN124      0.0905
    156  CD        -1.0670   42.7540    9.6030 C.2   124  GLN124      0.2608
    157  OE1        0.0140   43.1800   10.0170 O.2   124  GLN124     -0.2717
    158  NE2       -1.1690   42.0120    8.5060 N.am  124  GLN124     -0.0878
    159  N         -1.7960   47.6670   10.8860 N.am  125  ASN125     -0.1974
    160  CA        -1.9600   48.9490   11.5760 C.3   125  ASN125      0.1688
    161  C         -2.0750   50.1650   10.6500 C.2   125  ASN125      0.2292
    162  O         -2.2120   51.2890   11.1280 O.2   125  ASN125     -0.2864
    163  CB        -0.7760   49.1900   12.5250 C.3   125  ASN125      0.1181
    164  CG        -0.8490   48.3480   13.7760 C.2   125  ASN125      0.2629
    165  OD1        0.1410   48.2030   14.4960 O.2   125  ASN125     -0.2716
    166  ND2       -2.0280   47.7950   14.0530 N.am  125  ASN125     -0.0877
    167  N         -4.2540   51.9980    7.9460 N.3   127  LEU127     -0.1245
    168  CA        -5.6080   52.0650    7.4010 C.3   127  LEU127      0.1561
    169  C         -5.7260   53.0490    6.2460 C.2   127  LEU127      0.2260
    170  O         -5.1450   54.1390    6.2850 O.2   127  LEU127     -0.2867
    171  CB        -6.5780   52.4600    8.5150 C.3   127  LEU127      0.0270
    172  CG        -6.5060   51.5380    9.7340 C.3   127  LEU127      0.0019
    173  CD1       -7.3060   52.1260   10.8840 C.3   127  LEU127      0.0001
    174  CD2       -7.0410   50.1600    9.3560 C.3   127  LEU127      0.0001
    175  N         -2.4590   53.6400   12.8650 N.3   137  ALA137     -0.1231
    176  CA        -3.3420   53.3380   13.9910 C.3   137  ALA137      0.1694
    177  C         -2.5290   52.7200   15.1260 C.2   137  ALA137      0.2592
    178  O         -1.4770   52.1310   14.8870 O.2   137  ALA137     -0.2718
    179  CB        -4.4300   52.3730   13.5580 C.3   137  ALA137      0.0304
    180  N         -3.0150   52.8610   16.3570 N.am  138  ASP138     -0.1974
    181  CA        -2.3410   52.2920   17.5270 C.3   138  ASP138      0.1709
    182  C         -1.0350   52.9620   17.9320 C.2   138  ASP138      0.2293
    183  O         -0.2020   52.3510   18.5990 O.2   138  ASP138     -0.2864
    184  CB        -2.0870   50.8020   17.3050 C.3   138  ASP138      0.1436
    185  CG        -3.2530   49.9430   17.7410 C.2   138  ASP138      0.3671
    186  OD1       -4.4120   50.4180   17.6810 O.co2 138  ASP138     -0.2456
    187  OD2       -3.0050   48.7840   18.1390 O.co2 138  ASP138     -0.2456
@<TRIPOS>BOND
     1   135   134    2
     2   122   121    2
     3   123   121   am
     4   121   120    1
     5   134   133    1
     6   139   140    1
     7   139   138    1
     8   137   138    1
     9   137   136    1
    10   120   119    1
    11   133   136    1
    12   133   132    1
    13   119   116    1
    14   127   126    2
    15   109   110    1
    16   109   106    1
    17   116   115    1
    18   116   117    1
    19   126   125    1
    20   110   112   ar
    21   110   111   ar
    22   112   114   ar
    23   111   113   ar
    24   115   107   am
    25   114   113   ar
    26   117   118    2
    27   117   124   am
    28   107   108    2
    29   107   106    1
    30   124   125    1
    31   106   105    1
    32   131   129   ar
    33   125   128    1
    34   169   170    2
    35   169   168    1
    36   105    99   am
    37   129   128    1
    38   129   130   ar
    39   104   102    1
    40   168   167    1
    41   168   171    1
    42    99    98    1
    43    99   100    2
    44   102   101    1
    45   102   103    1
    46   101    98    1
    47    98    97    1
    48   158   156   am
    49   171   172    1
    50    95    96   ar
    51    95    93   ar
    52     9     7   ar
    53   150   151    1
    54   174   172    1
    55    89    88    2
    56     8     7   ar
    57    96    94   ar
    58   156   157    2
    59   156   155    1
    60   143   144    2
    61   143   142    1
    62    97    88   am
    63    93    91   ar
    64   172   173    1
    65   151   152    1
    66   151   154    1
    67     7     6    1
    68    88    87    1
    69   155   154    1
    70   152   153    2
    71   152   159   am
    72   142   145    1
    73   142   141    1
    74    84    83   ar
    75   161   162    2
    76   161   160    1
    77    94    92   ar
    78   159   160    1
    79    91    92   ar
    80    91    90    1
    81     6     5    1
    82   145   146    1
    83   160   163    1
    84    87    90    1
    85    87    86    1
    86    83    85   ar
    87    83    82    1
    88    17    15    1
    89    65    63    1
    90     5     2    1
    91    86    79   am
    92    16    14    1
    93   146   147    1
    94    13    12    2
    95   163   164    1
    96    82    81    1
    97   175   176    1
    98    59    60    1
    99    15    14    1
   100   147   148    1
   101    60    63    1
   102    60    61    1
   103    79    80    2
   104    79    78    1
   105    81    78    1
   106    11    14    1
   107    11    12    1
   108    11    10    1
   109    63    64    1
   110   179   176    1
   111     2     1    1
   112     2     3    1
   113   164   166   am
   114   164   165    2
   115   176   177    1
   116    78    77    1
   117   148   149    1
   118    61    62    2
   119     3     4    2
   120   178   177    2
   121   177   180   am
   122    77    68   am
   123    49    46    1
   124    45    46    1
   125    46    47    1
   126    69    68    2
   127    68    67    1
   128   180   181    1
   129    43    42    1
   130    18    19    1
   131    25    24   ar
   132    41    40    2
   133    21    20    2
   134    70    67    1
   135    70    71    1
   136    42    44    1
   137    42    39    1
   138   184   181    1
   139   184   185    1
   140    67    66    1
   141    40    39    1
   142    47    48    2
   143   181   182    1
   144   186   185   ar
   145    20    19    1
   146    20    27   am
   147   185   187   ar
   148    24    26   ar
   149    24    23    1
   150    19    22    1
   151   182   183    2
   152    71    73   ar
   153    71    72   ar
   154    73    75   ar
   155    39    38    1
   156    22    23    1
   157    28    27    1
   158    28    29    1
   159    72    74   ar
   160    75    76   ar
   161    36    35    1
   162    29    31   am
   163    29    30    2
   164    74    76   ar
   165    31    32    1
   166    58    57    1
   167    35    32    1
   168    35    37    1
   169    32    33    1
   170    50    51    1
   171    56    57    1
   172    56    55    1
   173    54    55    1
   174    54    51    1
   175    51    52    1
   176    33    34    2
   177    52    53    2
