@<TRIPOS>MOLECULE
tmp/1ke8A00.pdb
 167 160 0 0 0
SMALL
GASTEIGER

@<TRIPOS>ATOM
      1  N        -19.8230   44.7940   14.0600 N.3     8  GLU8       -0.1231
      2  CA       -18.9050   43.7270   13.6310 C.3     8  GLU8        0.1699
      3  C        -17.6030   43.8060   14.4560 C.2     8  GLU8        0.2592
      4  O        -17.2820   44.8150   15.0610 O.2     8  GLU8       -0.2718
      5  CB       -18.5610   43.9470   12.1400 C.3     8  GLU8        0.0402
      6  CG       -18.0630   42.6730   11.4600 C.3     8  GLU8        0.1161
      7  CD       -17.5730   42.9910   10.0560 C.2     8  GLU8        0.3649
      8  OE1      -17.7000   44.1250    9.6340 O.co2   8  GLU8       -0.2457
      9  OE2      -17.1500   42.0670    9.3640 O.co2   8  GLU8       -0.2457
     10  N        -16.8580   42.6780   14.5020 N.am    9  LYS9       -0.1966
     11  CA       -15.5420   42.6840   15.1630 C.3     9  LYS9        0.1728
     12  C        -14.4070   42.8410   14.1280 C.2     9  LYS9        0.2616
     13  O        -14.4250   42.1760   13.1060 O.2     9  LYS9       -0.2715
     14  CB       -15.3910   41.3610   15.9580 C.3     9  LYS9        0.0311
     15  CG       -14.0440   41.2050   16.7130 C.3     9  LYS9        0.0038
     16  CD       -13.7420   39.7590   17.1580 C.3     9  LYS9        0.0206
     17  CE       -14.5770   39.3180   18.3650 C.3     9  LYS9        0.1093
     18  NZ       -14.1670   37.9820   18.8060 N.3     9  LYS9       -0.1314
     19  N        -13.5530   43.8350   14.3320 N.am   10  ILE10      -0.1977
     20  CA       -12.5470   44.1790   13.3370 C.3    10  ILE10       0.1596
     21  C        -11.2410   43.4240   13.5790 C.2    10  ILE10       0.2287
     22  O        -10.3250   43.4710   12.7570 O.2    10  ILE10      -0.2864
     23  CB       -12.2660   45.7000   13.3390 C.3    10  ILE10       0.0276
     24  CG1      -13.5720   46.4740   13.1430 C.3    10  ILE10       0.0022
     25  CG2      -11.2860   46.0510   12.2370 C.3    10  ILE10       0.0022
     26  CD1      -14.3180   46.1160   11.8750 C.3    10  ILE10       0.0001
     27  N        -10.9260   45.0680   18.8250 N.3    18  VAL18      -0.1245
     28  CA       -11.4210   46.2590   18.1460 C.3    18  VAL18       0.1561
     29  C        -12.7520   45.9710   17.4670 C.2    18  VAL18       0.2260
     30  O        -12.9000   44.9610   16.7790 O.2    18  VAL18      -0.2867
     31  CB       -10.4140   46.7510   17.0860 C.3    18  VAL18       0.0252
     32  CG1      -10.9870   47.9400   16.3290 C.3    18  VAL18       0.0019
     33  CG2       -9.1080   47.1370   17.7600 C.3    18  VAL18       0.0019
     34  N        -14.4050   53.2960   15.7110 N.3    31  ALA31      -0.1245
     35  CA       -13.6820   52.0810   16.0300 C.3    31  ALA31       0.1562
     36  C        -13.6120   52.0670   17.5470 C.2    31  ALA31       0.2260
     37  O        -13.0470   52.9740   18.1600 O.2    31  ALA31      -0.2867
     38  CB       -12.2840   52.1120   15.4330 C.3    31  ALA31       0.0290
     39  N        -12.2360   50.2920   20.8330 N.3    33  LYS33      -0.1245
     40  CA       -11.1950   49.3760   21.2910 C.3    33  LYS33       0.1561
     41  C        -11.2950   49.0930   22.7890 C.2    33  LYS33       0.2260
     42  O        -11.1120   49.9950   23.6150 O.2    33  LYS33      -0.2867
     43  CB        -9.8140   49.9530   20.9680 C.3    33  LYS33       0.0271
     44  CG        -8.6550   49.2370   21.6500 C.3    33  LYS33       0.0035
     45  CD        -7.3450   49.9780   21.4240 C.3    33  LYS33       0.0206
     46  CE        -6.7710   49.7100   20.0400 C.3    33  LYS33       0.1093
     47  NZ        -6.2800   48.3060   19.9200 N.3    33  LYS33      -0.1314
     48  N         -4.6790   58.3140   12.8540 N.3    57  VAL57      -0.1245
     49  CA        -6.0610   58.0060   13.1900 C.3    57  VAL57       0.1561
     50  C         -6.3860   58.7220   14.4990 C.2    57  VAL57       0.2260
     51  O         -5.7860   58.4550   15.5400 O.2    57  VAL57      -0.2867
     52  CB        -6.2750   56.4920   13.3640 C.3    57  VAL57       0.0252
     53  CG1       -7.7350   56.2030   13.6840 C.3    57  VAL57       0.0019
     54  CG2       -5.8640   55.7690   12.0950 C.3    57  VAL57       0.0019
     55  N        -11.8330   55.5530   18.4850 N.3    73  PHE73      -0.1227
     56  CA       -11.0480   56.1100   17.3850 C.3    73  PHE73       0.1736
     57  C        -11.9160   56.3660   16.1520 C.2    73  PHE73       0.2595
     58  O        -13.0160   55.8170   16.0290 O.2    73  PHE73      -0.2718
     59  CB        -9.9340   55.1400   16.9710 C.3    73  PHE73       0.0547
     60  CG        -8.8480   54.9560   17.9970 C.ar   73  PHE73      -0.0202
     61  CD1       -8.8760   53.8800   18.8700 C.ar   73  PHE73      -0.0042
     62  CD2       -7.7630   55.8230   18.0400 C.ar   73  PHE73      -0.0042
     63  CE1       -7.8360   53.6640   19.7650 C.ar   73  PHE73      -0.0003
     64  CE2       -6.7210   55.6150   18.9270 C.ar   73  PHE73      -0.0003
     65  CZ        -6.7530   54.5330   19.7940 C.ar   73  PHE73      -0.0000
     66  N        -11.4190   57.1930   15.2350 N.am   74  GLU74      -0.1965
     67  CA       -12.1630   57.4480   14.0060 C.3    74  GLU74       0.1733
     68  C        -12.1010   56.1240   13.2420 C.2    74  GLU74       0.2616
     69  O        -11.1970   55.3200   13.4560 O.2    74  GLU74      -0.2715
     70  CB       -11.5270   58.5810   13.1790 C.3    74  GLU74       0.0429
     71  CG       -10.2710   58.2080   12.4180 C.3    74  GLU74       0.1163
     72  CD        -9.7550   59.3390   11.5290 C.2    74  GLU74       0.3649
     73  OE1      -10.4430   59.7090   10.5550 O.co2  74  GLU74      -0.2457
     74  OE2       -8.6560   59.8590   11.8030 O.co2  74  GLU74      -0.2457
     75  N        -13.0630   55.8950   12.3620 N.am   75  PHE75      -0.1960
     76  CA       -13.1250   54.6430   11.6170 C.3    75  PHE75       0.1771
     77  C        -12.7640   54.7850   10.1430 C.2    75  PHE75       0.2619
     78  O        -13.2220   55.7110    9.4770 O.2    75  PHE75      -0.2715
     79  CB       -14.5420   54.0660   11.7320 C.3    75  PHE75       0.0574
     80  CG       -14.7480   52.7880   10.9630 C.ar   75  PHE75      -0.0200
     81  CD1      -14.3580   51.5620   11.5010 C.ar   75  PHE75      -0.0042
     82  CD2      -15.3180   52.8130    9.6920 C.ar   75  PHE75      -0.0042
     83  CE1      -14.5320   50.3770   10.7830 C.ar   75  PHE75      -0.0003
     84  CE2      -15.4950   51.6330    8.9640 C.ar   75  PHE75      -0.0003
     85  CZ       -15.1010   50.4120    9.5120 C.ar   75  PHE75      -0.0000
     86  N        -11.9400   53.8620    9.6470 N.am   76  LEU76      -0.1963
     87  CA       -11.5460   53.8240    8.2340 C.3    76  LEU76       0.1728
     88  C        -11.9170   52.4140    7.7800 C.2    76  LEU76       0.2616
     89  O        -11.7730   51.4620    8.5480 O.2    76  LEU76      -0.2715
     90  CB       -10.0420   54.0820    8.0540 C.3    76  LEU76       0.0311
     91  CG        -9.5930   55.5540    8.0650 C.3    76  LEU76       0.0022
     92  CD1       -9.3130   56.0050    9.4880 C.3    76  LEU76       0.0001
     93  CD2       -8.3330   55.7210    7.2180 C.3    76  LEU76       0.0001
     94  N        -12.3910   52.2790    6.5410 N.am   77  HIS77      -0.1959
     95  CA       -12.8540   50.9890    6.0210 C.3    77  HIS77       0.1787
     96  C        -11.8890   49.8810    5.6160 C.2    77  HIS77       0.2620
     97  O        -12.3290   48.7510    5.3790 O.2    77  HIS77      -0.2715
     98  CB       -13.7990   51.2210    4.8430 C.3    77  HIS77       0.0785
     99  CG       -15.0700   51.9190    5.2150 C.ar   77  HIS77       0.0821
    100  ND1      -15.1140   53.2530    5.5590 N.ar   77  HIS77      -0.2267
    101  CD2      -16.3410   51.4620    5.3120 C.ar   77  HIS77       0.1154
    102  CE1      -16.3580   53.5890    5.8520 C.ar   77  HIS77       0.1986
    103  NE2      -17.1220   52.5200    5.7090 N.ar   77  HIS77      -0.2212
    104  N        -10.5960   50.1600    5.5230 N.am   78  GLN78      -0.1963
    105  CA        -9.6840   49.0970    5.1060 C.3    78  GLN78       0.1733
    106  C         -8.2440   49.3110    5.5410 C.2    78  GLN78       0.2616
    107  O         -7.7730   50.4470    5.6000 O.2    78  GLN78      -0.2715
    108  CB        -9.7440   48.9710    3.5830 C.3    78  GLN78       0.0408
    109  CG        -9.1210   47.7230    3.0100 C.3    78  GLN78       0.0908
    110  CD        -9.4950   47.5310    1.5500 C.2    78  GLN78       0.2608
    111  OE1       -8.6770   47.7200    0.6540 O.2    78  GLN78      -0.2717
    112  NE2      -10.7500   47.1670    1.3070 N.am   78  GLN78      -0.0878
    113  N         -7.5450   48.2200    5.8490 N.am   79  ASP79      -0.1971
    114  CA        -6.1430   48.3280    6.2410 C.3    79  ASP79       0.1709
    115  C         -5.2590   47.9670    5.0490 C.2    79  ASP79       0.2293
    116  O         -5.7410   47.3970    4.0620 O.2    79  ASP79      -0.2864
    117  CB        -5.8410   47.4470    7.4620 C.3    79  ASP79       0.1436
    118  CG        -5.9640   45.9530    7.1800 C.2    79  ASP79       0.3671
    119  OD1       -6.2320   45.2090    8.1420 O.co2  79  ASP79      -0.2456
    120  OD2       -5.7750   45.5170    6.0280 O.co2  79  ASP79      -0.2456
    121  N         -5.0530   44.1570    3.7880 N.3    82  LYS82      -0.1245
    122  CA        -6.1380   43.7060    2.9230 C.3    82  LYS82       0.1561
    123  C         -6.0310   44.3110    1.5250 C.2    82  LYS82       0.2260
    124  O         -6.3930   43.6790    0.5320 O.2    82  LYS82      -0.2867
    125  CB        -7.4980   44.0600    3.5320 C.3    82  LYS82       0.0271
    126  CG        -8.6710   43.5910    2.6740 C.3    82  LYS82       0.0035
    127  CD       -10.0150   43.9580    3.2750 C.3    82  LYS82       0.0206
    128  CE       -11.1590   43.4030    2.4330 C.3    82  LYS82       0.1093
    129  NZ       -12.4920   43.7720    2.9910 N.3    82  LYS82      -0.1314
    130  N         -1.2540   45.8740    9.1040 N.3   124  GLN124     -0.1231
    131  CA        -2.5390   45.8510    9.8000 C.3   124  GLN124      0.1698
    132  C         -2.8520   47.1580   10.5390 C.2   124  GLN124      0.2592
    133  O         -4.0140   47.4490   10.8200 O.2   124  GLN124     -0.2718
    134  CB        -2.5760   44.6980   10.8160 C.3   124  GLN124      0.0381
    135  CG        -2.4940   43.2830   10.2420 C.3   124  GLN124      0.0905
    136  CD        -1.1680   42.9660    9.5530 C.2   124  GLN124      0.2608
    137  OE1       -0.1110   43.4720    9.9330 O.2   124  GLN124     -0.2717
    138  NE2       -1.2230   42.1030    8.5460 N.am  124  GLN124     -0.0878
    139  N         -1.8170   47.9350   10.8530 N.am  125  ASN125     -0.1974
    140  CA        -1.9850   49.1990   11.5690 C.3   125  ASN125      0.1688
    141  C         -2.0530   50.4110   10.6480 C.2   125  ASN125      0.2292
    142  O         -2.1170   51.5430   11.1210 O.2   125  ASN125     -0.2864
    143  CB        -0.8340   49.4130   12.5570 C.3   125  ASN125      0.1181
    144  CG        -0.8850   48.4610   13.7260 C.2   125  ASN125      0.2629
    145  OD1        0.0310   48.4190   14.5440 O.2   125  ASN125     -0.2716
    146  ND2       -1.9630   47.6900   13.8150 N.am  125  ASN125     -0.0877
    147  N         -4.2090   52.2760    7.9040 N.3   127  LEU127     -0.1245
    148  CA        -5.5550   52.3360    7.3590 C.3   127  LEU127      0.1561
    149  C         -5.6680   53.2840    6.1770 C.2   127  LEU127      0.2260
    150  O         -4.9980   54.3140    6.1340 O.2   127  LEU127     -0.2867
    151  CB        -6.5240   52.7370    8.4750 C.3   127  LEU127      0.0270
    152  CG        -6.4490   51.8260    9.7110 C.3   127  LEU127      0.0019
    153  CD1       -7.3820   52.3470   10.7860 C.3   127  LEU127      0.0001
    154  CD2       -6.8240   50.3880    9.3310 C.3   127  LEU127      0.0001
    155  N         -2.4400   53.8940   12.7800 N.3   137  ALA137     -0.1231
    156  CA        -3.3660   53.5580   13.8630 C.3   137  ALA137      0.1694
    157  C         -2.5990   52.9060   15.0130 C.2   137  ALA137      0.2592
    158  O         -1.5600   52.2870   14.7870 O.2   137  ALA137     -0.2718
    159  CB        -4.4430   52.6160   13.3550 C.3   137  ALA137      0.0304
    160  N         -3.1180   53.0480   16.2330 N.am  138  ASP138     -0.1974
    161  CA        -2.5040   52.4900   17.4470 C.3   138  ASP138      0.1709
    162  C         -1.1790   53.1300   17.8560 C.2   138  ASP138      0.2293
    163  O         -0.3740   52.5220   18.5530 O.2   138  ASP138     -0.2864
    164  CB        -2.3170   50.9740   17.3210 C.3   138  ASP138      0.1436
    165  CG        -3.5930   50.2030   17.6240 C.2   138  ASP138      0.3671
    166  OD1       -4.5190   50.8000   18.2080 O.co2 138  ASP138     -0.2456
    167  OD2       -3.6690   49.0010   17.2980 O.co2 138  ASP138     -0.2456
@<TRIPOS>BOND
     1   124   123    2
     2   111   110    2
     3   112   110   am
     4   123   122    1
     5   110   109    1
     6   128   129    1
     7   128   127    1
     8   126   127    1
     9   126   125    1
    10   122   125    1
    11   122   121    1
    12   109   108    1
    13   108   105    1
    14   116   115    2
    15    98    99    1
    16    98    95    1
    17   115   114    1
    18   105   104    1
    19   105   106    1
    20    99   101   ar
    21    99   100   ar
    22   101   103   ar
    23    97    96    2
    24   104    96   am
    25   106   107    2
    26   106   113   am
    27   100   102   ar
    28    96    95    1
    29   103   102   ar
    30   113   114    1
    31    95    94    1
    32   120   118   ar
    33   150   149    2
    34   149   148    1
    35   114   117    1
    36    94    88   am
    37   118   117    1
    38   118   119   ar
    39    93    91    1
    40   148   147    1
    41   148   151    1
    42    88    87    1
    43    88    89    2
    44    90    91    1
    45    90    87    1
    46    91    92    1
    47    87    86    1
    48   151   152    1
    49   138   136   am
    50    84    85   ar
    51    84    82   ar
    52   130   131    1
    53   154   152    1
    54     9     7   ar
    55    78    77    2
    56    85    83   ar
    57   136   137    2
    58   136   135    1
    59     8     7   ar
    60    86    77   am
    61    82    80   ar
    62   152   153    1
    63   131   132    1
    64   131   134    1
    65     7     6    1
    66    77    76    1
    67   135   134    1
    68   132   133    2
    69   132   139   am
    70    73    72   ar
    71   141   142    2
    72   141   140    1
    73    83    81   ar
    74   139   140    1
    75    80    81   ar
    76    80    79    1
    77     6     5    1
    78    72    74   ar
    79    72    71    1
    80   140   143    1
    81    76    79    1
    82    76    75    1
    83    26    24    1
    84    54    52    1
    85     5     2    1
    86    25    23    1
    87    75    68   am
    88    71    70    1
    89   143   144    1
    90    22    21    2
    91   155   156    1
    92    48    49    1
    93    13    12    2
    94    24    23    1
    95    70    67    1
    96    49    52    1
    97    49    50    1
    98    68    69    2
    99    68    67    1
   100    20    23    1
   101    20    21    1
   102    20    19    1
   103   159   156    1
   104    52    53    1
   105     2     1    1
   106     2     3    1
   107   144   146   am
   108   144   145    2
   109   156   157    1
   110    67    66    1
   111    12    19   am
   112    12    11    1
   113     3    10   am
   114     3     4    2
   115    50    51    2
   116    10    11    1
   117   158   157    2
   118   157   160   am
   119    11    14    1
   120    66    57   am
   121    38    35    1
   122    34    35    1
   123    14    15    1
   124    58    57    2
   125    35    36    1
   126    57    56    1
   127   160   161    1
   128    32    31    1
   129    15    16    1
   130    30    29    2
   131    59    56    1
   132    59    60    1
   133    31    33    1
   134    31    28    1
   135    16    17    1
   136   167   165   ar
   137   164   161    1
   138   164   165    1
   139    56    55    1
   140   161   162    1
   141    29    28    1
   142    36    37    2
   143   165   166   ar
   144   162   163    2
   145    60    62   ar
   146    60    61   ar
   147    62    64   ar
   148    28    27    1
   149    17    18    1
   150    61    63   ar
   151    64    65   ar
   152    63    65   ar
   153    47    46    1
   154    46    45    1
   155    39    40    1
   156    43    40    1
   157    43    44    1
   158    40    41    1
   159    45    44    1
   160    41    42    2
