@<TRIPOS>MOLECULE
tmp/1kejA00.pdb
 196 187 0 0 0
SMALL
GASTEIGER

@<TRIPOS>ATOM
      1  N         38.2230   43.7270   75.8060 N.3   185  GLY185     -0.1210
      2  CA        38.9360   44.9290   75.4060 C.3   185  GLY185      0.1956
      3  C         40.3840   44.6260   75.1010 C.2   185  GLY185      0.2612
      4  O         40.7360   43.4800   74.8330 O.2   185  GLY185     -0.2717
      5  N         41.2280   45.6500   75.1480 N.am  186  GLY186     -0.1942
      6  CA        42.6420   45.4530   74.8760 C.3   186  GLY186      0.2014
      7  C         43.2850   44.2610   75.5730 C.2   186  GLY186      0.2638
      8  O         43.9000   43.4190   74.9260 O.2   186  GLY186     -0.2714
      9  N         43.1510   44.1930   76.8940 N.am  187  PHE187     -0.1973
     10  CA        43.7410   43.1120   77.6690 C.3   187  PHE187      0.1639
     11  C         43.4790   41.7200   77.1220 C.2   187  PHE187      0.2290
     12  O         44.3400   40.8440   77.2020 O.2   187  PHE187     -0.2864
     13  CB        43.2640   43.1780   79.1220 C.3   187  PHE187      0.0560
     14  CG        44.1340   44.0340   80.0070 C.ar  187  PHE187     -0.0200
     15  CD1       44.1230   45.4210   79.8870 C.ar  187  PHE187     -0.0042
     16  CD2       45.0080   43.4520   80.9250 C.ar  187  PHE187     -0.0042
     17  CE1       44.9750   46.2180   80.6640 C.ar  187  PHE187     -0.0003
     18  CE2       45.8640   44.2460   81.7060 C.ar  187  PHE187     -0.0003
     19  CZ        45.8450   45.6290   81.5710 C.ar  187  PHE187     -0.0000
     20  N         43.1820   41.0960   74.1360 N.3   189  ARG189     -0.1245
     21  CA        43.8540   41.0250   72.8490 C.3   189  ARG189      0.1563
     22  C         45.2960   40.6370   73.0680 C.2   189  ARG189      0.2260
     23  O         45.9880   40.2030   72.1510 O.2   189  ARG189     -0.2867
     24  CB        43.7890   42.3780   72.1450 C.3   189  ARG189      0.0307
     25  CG        42.8420   42.4200   70.9600 C.3   189  ARG189      0.0489
     26  CD        41.9980   43.6730   70.9970 C.3   189  ARG189      0.2205
     27  NE        42.7990   44.8720   71.2120 N.pl3 189  ARG189     -0.0865
     28  CZ        42.2870   46.0790   71.4410 C.cat 189  ARG189      0.5346
     29  NH1       40.9750   46.2550   71.4860 N.pl3 189  ARG189      0.1354
     30  NH2       43.0900   47.1120   71.6290 N.pl3 189  ARG189      0.1354
     31  N         47.3500   42.7770   75.2000 N.3   191  LYS191     -0.1245
     32  CA        48.1090   43.9340   75.6420 C.3   191  LYS191      0.1561
     33  C         48.4480   43.5110   77.0590 C.2   191  LYS191      0.2260
     34  O         47.6260   42.8960   77.7320 O.2   191  LYS191     -0.2867
     35  CB        47.2350   45.1860   75.7100 C.3   191  LYS191      0.0271
     36  CG        46.6580   45.6500   74.3890 C.3   191  LYS191      0.0035
     37  CD        47.6390   46.5090   73.5980 C.3   191  LYS191      0.0206
     38  CE        47.8740   47.8510   74.2710 C.3   191  LYS191      0.1093
     39  NZ        46.5750   48.4870   74.5970 N.3   191  LYS191     -0.1314
     40  N         46.8300   48.3490   79.6870 N.3   194  GLY194     -0.1210
     41  CA        45.9010   49.2030   78.9610 C.3   194  GLY194      0.1956
     42  C         45.4390   50.4210   79.7540 C.2   194  GLY194      0.2612
     43  O         45.9160   50.6980   80.8520 O.2   194  GLY194     -0.2717
     44  N         44.4860   51.1260   79.1680 N.am  195  HIS195     -0.1961
     45  CA        43.9920   52.3210   79.8130 C.3   195  HIS195      0.1787
     46  C         42.9830   51.9800   80.8640 C.2   195  HIS195      0.2620
     47  O         42.9440   52.5660   81.9530 O.2   195  HIS195     -0.2715
     48  CB        43.3690   53.2730   78.8350 C.3   195  HIS195      0.0785
     49  CG        44.4500   54.2290   78.3360 C.ar  195  HIS195      0.0821
     50  ND1       45.3340   54.9040   79.1540 N.ar  195  HIS195     -0.2267
     51  CD2       44.7660   54.5860   77.0640 C.ar  195  HIS195      0.1154
     52  CE1       46.1460   55.6390   78.4090 C.ar  195  HIS195      0.1986
     53  NE2       45.8210   55.4630   77.1390 N.ar  195  HIS195     -0.2212
     54  N         42.1460   51.0330   80.5070 N.am  196  ASP196     -0.1971
     55  CA        41.1170   50.5910   81.4060 C.3   196  ASP196      0.1709
     56  C         40.9130   49.0990   81.2810 C.2   196  ASP196      0.2293
     57  O         41.4670   48.4560   80.3770 O.2   196  ASP196     -0.2864
     58  CB        39.8000   51.3470   81.1730 C.3   196  ASP196      0.1436
     59  CG        39.1930   51.1320   79.7890 C.2   196  ASP196      0.3671
     60  OD1       39.5260   50.1150   79.1530 O.co2 196  ASP196     -0.2456
     61  OD2       38.3870   51.9940   79.3430 O.co2 196  ASP196     -0.2456
     62  N         38.2780   46.5130   80.5130 N.3   198  ASP198     -0.1239
     63  CA        36.9840   46.2960   79.8940 C.3   198  ASP198      0.1674
     64  C         36.3960   44.9230   80.2880 C.2   198  ASP198      0.2266
     65  O         37.0960   43.9050   80.2770 O.2   198  ASP198     -0.2867
     66  CB        37.0930   46.5000   78.3470 C.3   198  ASP198      0.1410
     67  CG        37.3460   47.9610   77.9330 C.2   198  ASP198      0.3668
     68  OD1       36.4830   48.8040   78.2230 O.co2 198  ASP198     -0.2456
     69  OD2       38.4080   48.2300   77.3360 O.co2 198  ASP198     -0.2456
     70  N         26.4630   56.5070   65.3880 N.3   246  ASP246     -0.1225
     71  CA        25.5910   56.0870   66.4580 C.3   246  ASP246      0.1805
     72  C         26.2380   55.4150   67.6530 C.2   246  ASP246      0.2597
     73  O         26.7540   54.3010   67.5760 O.2   246  ASP246     -0.2718
     74  CB        24.4940   55.1850   65.9060 C.3   246  ASP246      0.1424
     75  CG        23.3150   55.9950   65.3800 C.2   246  ASP246      0.3668
     76  OD1       23.0940   57.2040   65.6410 O.co2 246  ASP246     -0.2456
     77  OD2       22.5370   55.4000   64.6040 O.co2 246  ASP246     -0.2456
     78  N         26.2120   56.1360   68.7610 N.am  247  ALA247     -0.1979
     79  CA        26.7200   55.6850   70.0410 C.3   247  ALA247      0.1597
     80  C         25.4900   56.0210   70.8650 C.2   247  ALA247      0.2287
     81  O         25.4950   55.9980   72.0930 O.2   247  ALA247     -0.2864
     82  CB        27.9150   56.5270   70.4750 C.3   247  ALA247      0.0319
     83  N         22.6930   54.3020   70.7210 N.3   249  ASP249     -0.1225
     84  CA        22.0530   53.0700   71.1850 C.3   249  ASP249      0.1805
     85  C         23.0980   52.0310   71.6060 C.2   249  ASP249      0.2597
     86  O         23.8850   51.5600   70.7850 O.2   249  ASP249     -0.2718
     87  CB        21.1190   52.5000   70.1050 C.3   249  ASP249      0.1424
     88  CG        21.5780   52.8210   68.6970 C.2   249  ASP249      0.3668
     89  OD1       22.6810   52.3780   68.3130 O.co2 249  ASP249     -0.2456
     90  OD2       20.8270   53.5100   67.9710 O.co2 249  ASP249     -0.2456
     91  N         23.0780   51.6730   72.8930 N.am  250  HIS250     -0.1975
     92  CA        24.0370   50.7290   73.4770 C.3   250  HIS250      0.1656
     93  C         23.4540   49.8160   74.5600 C.2   250  HIS250      0.2291
     94  O         22.3550   50.0570   75.0590 O.2   250  HIS250     -0.2864
     95  CB        25.2110   51.5210   74.0840 C.3   250  HIS250      0.0771
     96  CG        24.7930   52.5550   75.0950 C.ar  250  HIS250      0.0820
     97  ND1       24.2780   52.2270   76.3340 N.ar  250  HIS250     -0.2267
     98  CD2       24.8120   53.9090   75.0430 C.ar  250  HIS250      0.1154
     99  CE1       23.9990   53.3350   76.9990 C.ar  250  HIS250      0.1986
    100  NE2       24.3130   54.3690   76.2410 N.ar  250  HIS250     -0.2212
    101  N         25.6930   49.8970   80.0180 N.3   253  LYS253     -0.1245
    102  CA        27.0860   49.9540   80.3880 C.3   253  LYS253      0.1561
    103  C         27.3250   50.9810   81.4860 C.2   253  LYS253      0.2260
    104  O         26.4650   51.8140   81.7890 O.2   253  LYS253     -0.2867
    105  CB        27.9490   50.2580   79.1580 C.3   253  LYS253      0.0271
    106  CG        27.4610   51.4060   78.2800 C.3   253  LYS253      0.0035
    107  CD        28.3580   51.5440   77.0500 C.3   253  LYS253      0.0206
    108  CE        27.9490   52.7170   76.1750 C.3   253  LYS253      0.1093
    109  NZ        28.8070   52.8610   74.9610 N.3   253  LYS253     -0.1314
    110  N         30.6650   53.3770   83.4130 N.3   255  PHE255     -0.1241
    111  CA        32.0540   53.8140   83.5180 C.3   255  PHE255      0.1605
    112  C         32.3960   53.9930   84.9870 C.2   255  PHE255      0.2264
    113  O         31.6640   54.6490   85.7260 O.2   255  PHE255     -0.2867
    114  CB        32.2400   55.1370   82.7720 C.3   255  PHE255      0.0534
    115  CG        31.9580   55.0460   81.3000 C.ar  255  PHE255     -0.0203
    116  CD1       31.5850   53.8330   80.7230 C.ar  255  PHE255     -0.0042
    117  CD2       32.0800   56.1730   80.4810 C.ar  255  PHE255     -0.0042
    118  CE1       31.3350   53.7390   79.3600 C.ar  255  PHE255     -0.0003
    119  CE2       31.8340   56.1010   79.1060 C.ar  255  PHE255     -0.0003
    120  CZ        31.4600   54.8810   78.5420 C.ar  255  PHE255     -0.0000
    121  N         35.1880   49.4890   82.8340 N.3   281  ASP281     -0.1239
    122  CA        33.9740   49.5980   82.0530 C.3   281  ASP281      0.1674
    123  C         33.1920   48.3420   82.4100 C.2   281  ASP281      0.2266
    124  O         33.7670   47.3530   82.8570 O.2   281  ASP281     -0.2867
    125  CB        34.2960   49.6250   80.5370 C.3   281  ASP281      0.1410
    126  CG        34.3280   51.0530   79.9500 C.2   281  ASP281      0.3668
    127  OD1       35.3370   51.3810   79.2980 O.co2 281  ASP281     -0.2456
    128  OD2       33.3510   51.8400   80.1320 O.co2 281  ASP281     -0.2456
    129  N         32.0740   42.7850   69.6120 N.3   296  GLY296     -0.1210
    130  CA        31.9760   44.2250   69.5570 C.3   296  GLY296      0.1956
    131  C         32.8290   44.9620   70.5690 C.2   296  GLY296      0.2612
    132  O         33.4990   45.9420   70.2350 O.2   296  GLY296     -0.2717
    133  N         32.8120   44.4980   71.8070 N.am  297  TRP297     -0.1962
    134  CA        33.5700   45.1650   72.8480 C.3   297  TRP297      0.1771
    135  C         34.9810   44.6430   72.9980 C.2   297  TRP297      0.2620
    136  O         35.6570   44.9460   73.9780 O.2   297  TRP297     -0.2715
    137  CB        32.8330   45.0600   74.1880 C.3   297  TRP297      0.0590
    138  CG        31.9550   46.2470   74.4540 C.ar  297  TRP297      0.0006
    139  CD1       30.9210   46.6940   73.6780 C.ar  297  TRP297      0.0946
    140  CD2       32.0920   47.1990   75.5230 C.ar  297  TRP297      0.0152
    141  NE1       30.4140   47.8670   74.1890 N.ar  297  TRP297     -0.2442
    142  CE2       31.1140   48.2000   75.3190 C.ar  297  TRP297      0.0810
    143  CE3       32.9510   47.3050   76.6300 C.ar  297  TRP297      0.0012
    144  CZ2       30.9710   49.3010   76.1830 C.ar  297  TRP297      0.0191
    145  CZ3       32.8080   48.4000   77.4910 C.ar  297  TRP297      0.0001
    146  CH2       31.8230   49.3840   77.2580 C.ar  297  TRP297      0.0015
    147  N         35.4390   43.8720   72.0180 N.am  298  THR298     -0.1937
    148  CA        36.7810   43.3030   72.0880 C.3   298  THR298      0.2028
    149  C         37.8010   44.0900   71.2450 C.2   298  THR298      0.2642
    150  O         39.0090   43.9710   71.4580 O.2   298  THR298     -0.2714
    151  CB        36.7520   41.8010   71.6640 C.3   298  THR298      0.1808
    152  OG1       37.8660   41.1040   72.2400 O.3   298  THR298     -0.2208
    153  CG2       36.7950   41.6740   70.1570 C.3   298  THR298      0.0379
    154  N         37.3090   44.9040   70.3060 N.am  299  GLY299     -0.1954
    155  CA        38.1890   45.6960   69.4500 C.3   299  GLY299      0.1869
    156  C         38.9450   44.8670   68.4220 C.2   299  GLY299      0.2309
    157  O         38.5470   43.7410   68.1470 O.2   299  GLY299     -0.2863
    158  N         39.8490   49.0200   68.0260 N.3   301  ARG301     -0.1245
    159  CA        39.0390   50.1280   67.5450 C.3   301  ARG301      0.1563
    160  C         39.0090   50.0400   66.0330 C.2   301  ARG301      0.2260
    161  O         37.9570   49.9080   65.4040 O.2   301  ARG301     -0.2867
    162  CB        39.6650   51.4690   67.9530 C.3   301  ARG301      0.0307
    163  CG        38.6650   52.5880   68.3070 C.3   301  ARG301      0.0489
    164  CD        38.1740   52.4930   69.7740 C.3   301  ARG301      0.2205
    165  NE        37.1410   53.4770   70.1200 N.pl3 301  ARG301     -0.0865
    166  CZ        36.5430   53.5550   71.3100 C.cat 301  ARG301      0.5346
    167  NH1       36.8760   52.7100   72.2750 N.pl3 301  ARG301      0.1354
    168  NH2       35.5990   54.4690   71.5310 N.pl3 301  ARG301      0.1354
    169  N         37.3580   46.6910   64.6140 N.3   304  GLU304     -0.1245
    170  CA        35.9060   46.7350   64.6250 C.3   304  GLU304      0.1567
    171  C         35.4320   47.5190   63.4210 C.2   304  GLU304      0.2260
    172  O         34.6540   47.0270   62.6000 O.2   304  GLU304     -0.2867
    173  CB        35.4070   47.4220   65.8990 C.3   304  GLU304      0.0388
    174  CG        35.6640   46.6330   67.1790 C.3   304  GLU304      0.1160
    175  CD        34.7910   45.3790   67.3080 C.2   304  GLU304      0.3649
    176  OE1       33.5570   45.5050   67.4980 O.co2 304  GLU304     -0.2457
    177  OE2       35.3400   44.2610   67.2180 O.co2 304  GLU304     -0.2457
    178  N         32.8610   45.6110   60.2980 N.3   308  ARG308     -0.1245
    179  CA        31.5270   45.9280   59.8250 C.3   308  ARG308      0.1563
    180  C         31.5890   46.7620   58.5620 C.2   308  ARG308      0.2260
    181  O         30.6130   46.8510   57.8200 O.2   308  ARG308     -0.2867
    182  CB        30.7860   46.7040   60.9010 C.3   308  ARG308      0.0307
    183  CG        31.5200   47.9680   61.3170 C.3   308  ARG308      0.0489
    184  CD        30.6890   48.7910   62.2860 C.3   308  ARG308      0.2205
    185  NE        30.6860   48.2530   63.6470 N.pl3 308  ARG308     -0.0865
    186  CZ        31.3270   48.8070   64.6750 C.cat 308  ARG308      0.5346
    187  NH1       32.0290   49.9190   64.5030 N.pl3 308  ARG308      0.1354
    188  NH2       31.2460   48.2550   65.8790 N.pl3 308  ARG308      0.1354
    189  N         26.7120   46.2080   67.2830 N.3   321  ASN321     -0.1240
    190  CA        27.4880   45.8840   68.4690 C.3   321  ASN321      0.1653
    191  C         26.6470   44.7480   69.0370 C.2   321  ASN321      0.2266
    192  O         27.1320   43.9140   69.8020 O.2   321  ASN321     -0.2867
    193  CB        27.4900   47.0650   69.4470 C.3   321  ASN321      0.1155
    194  CG        28.8050   47.2060   70.2120 C.2   321  ASN321      0.2627
    195  OD1       28.8420   47.8070   71.2900 O.2   321  ASN321     -0.2716
    196  ND2       29.8910   46.6800   69.6480 N.am  321  ASN321     -0.0877
@<TRIPOS>BOND
     1   181   180    2
     2   180   179    1
     3   179   178    1
     4   179   182    1
     5   182   183    1
     6   183   184    1
     7   184   185    1
     8   172   171    2
     9   171   170    1
    10   185   186    2
    11   187   186    1
    12    77    75   ar
    13   169   170    1
    14   170   173    1
    15   186   188    1
    16    75    76   ar
    17    75    74    1
    18    70    71    1
    19   161   160    2
    20   173   174    1
    21    74    71    1
    22   160   159    1
    23    71    72    1
    24   174   175    1
    25   177   175   ar
    26   189   190    1
    27   175   176   ar
    28   159   162    1
    29   159   158    1
    30    73    72    2
    31    72    78   am
    32   162   163    1
    33    90    88   ar
    34   157   156    2
    35   163   164    1
    36    89    88   ar
    37   156   155    1
    38   190   191    1
    39   190   193    1
    40    88    87    1
    41    78    79    1
    42   191   192    2
    43   193   194    1
    44   155   154    1
    45   130   129    1
    46   130   131    1
    47   196   194   am
    48   164   165    1
    49    79    82    1
    50    79    80    1
    51    87    84    1
    52   165   166    2
    53   153   151    1
    54   194   195    2
    55   132   131    2
    56   154   149   am
    57   131   133   am
    58    83    84    1
    59    86    85    2
    60    80    81    2
    61    25    26    1
    62    25    24    1
    63    26    27    1
    64    84    85    1
    65    27    28    2
    66   149   150    2
    67   149   148    1
    68   166   168    1
    69   166   167    1
    70    28    29    1
    71    28    30    1
    72    85    91   am
    73   151   148    1
    74   151   152    1
    75   133   134    1
    76   147   148    1
    77   147   135   am
    78    24    21    1
    79    23    22    2
    80   134   135    1
    81   134   137    1
    82    21    22    1
    83    21    20    1
    84    91    92    1
    85   135   136    2
    86    92    95    1
    87    92    93    1
    88    37    38    1
    89    37    36    1
    90   139   141   ar
    91   139   138   ar
    92    95    96    1
    93   137   138    1
    94   141   142   ar
    95    38    39    1
    96    36    35    1
    97   138   140   ar
    98    93    94    2
    99     4     3    2
   100     6     5    1
   101     6     7    1
   102     8     7    2
   103   109   108    1
   104    98    96   ar
   105    98   100   ar
   106    96    97   ar
   107     3     5   am
   108     3     2    1
   109    31    32    1
   110   142   140   ar
   111   142   144   ar
   112     2     1    1
   113   140   143   ar
   114     7     9   am
   115    32    35    1
   116    32    33    1
   117   108   107    1
   118   144   146   ar
   119   100    99   ar
   120    97    99   ar
   121   143   145   ar
   122     9    10    1
   123   107   106    1
   124    33    34    2
   125    51    53   ar
   126    51    49   ar
   127    11    12    2
   128    11    10    1
   129    53    52   ar
   130   146   145   ar
   131    69    67   ar
   132    10    13    1
   133    67    68   ar
   134    67    66    1
   135   106   105    1
   136    49    48    1
   137    49    50   ar
   138    66    63    1
   139    52    50   ar
   140   120   119   ar
   141   120   118   ar
   142    48    45    1
   143    41    40    1
   144    41    42    1
   145   119   117   ar
   146    13    14    1
   147    60    59   ar
   148   105   102    1
   149    44    42   am
   150    44    45    1
   151   127   126   ar
   152    61    59   ar
   153   118   116   ar
   154    42    43    2
   155    59    58    1
   156    45    46    1
   157    15    14   ar
   158    15    17   ar
   159    63    64    1
   160    63    62    1
   161   126   128   ar
   162   126   125    1
   163    14    16   ar
   164   101   102    1
   165    65    64    2
   166    57    56    2
   167   102   103    1
   168   117   115   ar
   169    54    46   am
   170    54    55    1
   171   125   122    1
   172    17    19   ar
   173   116   115   ar
   174    46    47    2
   175    16    18   ar
   176    58    55    1
   177    56    55    1
   178   115   114    1
   179   103   104    2
   180    19    18   ar
   181   122   123    1
   182   122   121    1
   183   123   124    2
   184   114   111    1
   185   110   111    1
   186   111   112    1
   187   112   113    2
