@<TRIPOS>MOLECULE
tmp/1kepA01.pdb
 128 122 0 0 0
SMALL
GASTEIGER

@<TRIPOS>ATOM
      1  N         12.5980   16.0420   71.9030 N.3    84  SER84      -0.1202
      2  CA        11.8560   17.2430   72.2390 C.3    84  SER84       0.2020
      3  C         11.8730   18.3850   71.2170 C.2    84  SER84       0.2619
      4  O         11.2060   19.4080   71.4530 O.2    84  SER84      -0.2717
      5  CB        12.3930   17.8510   73.5430 C.3    84  SER84       0.2103
      6  OG        13.6420   18.4480   73.3310 O.3    84  SER84      -0.2182
      7  N         12.5840   18.2240   70.1000 N.am   85  HIS85      -0.1961
      8  CA        12.7520   19.3690   69.1800 C.3    85  HIS85       0.1787
      9  C         11.9660   19.2860   67.8740 C.2    85  HIS85       0.2620
     10  O         12.2050   18.4070   67.0170 O.2    85  HIS85      -0.2715
     11  CB        14.2470   19.5610   68.8850 C.3    85  HIS85       0.0785
     12  CG        14.6220   20.8830   68.2770 C.ar   85  HIS85       0.0821
     13  ND1       13.8790   22.0360   68.4400 N.ar   85  HIS85      -0.2267
     14  CD2       15.7180   21.2440   67.5490 C.ar   85  HIS85       0.1154
     15  CE1       14.4760   23.0320   67.7980 C.ar   85  HIS85       0.1986
     16  NE2       15.5940   22.5780   67.2510 N.ar   85  HIS85      -0.2212
     17  N         11.0970   20.2720   67.6530 N.am   86  ASN86      -0.1972
     18  CA        10.3210   20.3270   66.3980 C.3    86  ASN86       0.1688
     19  C         11.2140   20.2650   65.1370 C.2    86  ASN86       0.2292
     20  O         10.8810   19.5560   64.1690 O.2    86  ASN86      -0.2864
     21  CB         9.4020   21.5610   66.3530 C.3    86  ASN86       0.1181
     22  CG         8.1510   21.4020   67.2040 C.2    86  ASN86       0.2629
     23  OD1        7.2960   20.5670   66.8870 O.2    86  ASN86      -0.2716
     24  ND2        8.0570   22.1570   68.3180 N.am   86  ASN86      -0.0877
     25  N          2.9160   18.6830   76.7960 N.3   123  THR123     -0.1203
     26  CA         3.0780   20.0080   76.2270 C.3   123  THR123      0.1994
     27  C          1.7940   20.6240   75.6980 C.2   123  THR123      0.2618
     28  O          0.8890   19.9040   75.2750 O.2   123  THR123     -0.2717
     29  CB         4.1520   19.9300   75.1060 C.3   123  THR123      0.1784
     30  OG1        4.3380   21.1970   74.4540 O.3   123  THR123     -0.2211
     31  CG2        3.7610   18.9650   74.0180 C.3   123  THR123      0.0376
     32  N          1.7960   21.9560   75.6470 N.am  124  ASP124     -0.1959
     33  CA         0.6840   22.7180   75.0920 C.3   124  ASP124      0.1840
     34  C          0.5460   22.4830   73.5980 C.2   124  ASP124      0.2621
     35  O         -0.5290   22.7320   73.0490 O.2   124  ASP124     -0.2715
     36  CB         0.7430   24.2060   75.4220 C.3   124  ASP124      0.1450
     37  CG         1.9320   24.9520   74.8480 C.2   124  ASP124      0.3671
     38  OD1        2.8950   24.3790   74.2560 O.co2 124  ASP124     -0.2456
     39  OD2        2.0240   26.2000   75.0420 O.co2 124  ASP124     -0.2456
     40  N          1.5870   21.9510   72.9550 N.am  125  GLU125     -0.1977
     41  CA         1.5800   21.7910   71.4880 C.3   125  GLU125      0.1602
     42  C          0.5650   20.7290   71.0120 C.2   125  GLU125      0.2287
     43  O          0.1970   20.7050   69.8420 O.2   125  GLU125     -0.2864
     44  CB         2.9830   21.4820   70.9360 C.3   125  GLU125      0.0415
     45  CG         3.9740   22.5770   71.2490 C.3   125  GLU125      0.1163
     46  CD         5.2220   22.6520   70.3700 C.2   125  GLU125      0.3649
     47  OE1        5.9920   23.6280   70.6160 O.co2 125  GLU125     -0.2457
     48  OE2        5.3670   21.8890   69.4140 O.co2 125  GLU125     -0.2457
     49  N          6.8810   15.8780   66.1560 N.3   159  TYR159     -0.1241
     50  CA         7.0700   15.9940   67.5930 C.3   159  TYR159      0.1605
     51  C          5.7500   16.0930   68.3720 C.2   159  TYR159      0.2264
     52  O          5.4970   15.2650   69.2720 O.2   159  TYR159     -0.2867
     53  CB         7.9620   17.1940   67.9760 C.3   159  TYR159      0.0534
     54  CG         7.8600   17.5790   69.4470 C.ar  159  TYR159     -0.0201
     55  CD1        8.3510   16.7090   70.4570 C.ar  159  TYR159     -0.0009
     56  CD2        7.2700   18.7580   69.8590 C.ar  159  TYR159     -0.0009
     57  CE1        8.2430   17.0360   71.8250 C.ar  159  TYR159      0.0417
     58  CE2        7.1450   19.0820   71.2290 C.ar  159  TYR159      0.0417
     59  CZ         7.6440   18.2220   72.2070 C.ar  159  TYR159      0.1957
     60  OH         7.4770   18.5390   73.5520 O.3   159  TYR159     -0.2866
     61  N          2.1430   21.6850   79.6670 N.3   186  CYS186     -0.1221
     62  CA         2.8060   22.9620   80.0130 C.3   186  CYS186      0.1808
     63  C          3.2860   23.7610   78.8100 C.2   186  CYS186      0.2602
     64  O          3.6340   23.1960   77.7600 O.2   186  CYS186     -0.2717
     65  CB         4.0260   22.6450   80.9340 C.3   186  CYS186      0.0970
     66  SG         4.8920   24.0510   81.7360 S.3   186  CYS186     -0.0800
     67  N          3.3100   25.0820   78.9690 N.am  187  SER187     -0.1938
     68  CA         3.8190   26.0010   77.9580 C.3   187  SER187      0.2055
     69  C          5.3490   26.0330   77.9000 C.2   187  SER187      0.2643
     70  O          6.0160   25.3130   78.6680 O.2   187  SER187     -0.2714
     71  CB         3.2190   27.3920   78.1810 C.3   187  SER187      0.2130
     72  OG         3.5190   27.9260   79.4650 O.3   187  SER187     -0.2179
     73  N          5.9200   26.8360   76.9910 N.am  188  ASN188     -0.1957
     74  CA         7.3570   26.8440   76.7450 C.3   188  ASN188      0.1819
     75  C          8.1750   27.1760   77.9900 C.2   188  ASN188      0.2621
     76  O          8.0090   28.2660   78.5500 O.2   188  ASN188     -0.2715
     77  CB         7.7550   27.9170   75.6670 C.3   188  ASN188      0.1195
     78  CG         7.5090   27.4680   74.2270 C.2   188  ASN188      0.2630
     79  OD1        6.3700   27.1230   73.8790 O.2   188  ASN188     -0.2716
     80  ND2        8.5770   27.5000   73.3670 N.am  188  ASN188     -0.0877
     81  N          9.1050   26.2850   78.3690 N.am  189  ASN189     -0.1972
     82  CA        10.0170   26.5340   79.4830 C.3   189  ASN189      0.1688
     83  C         11.3040   27.2610   79.0670 C.2   189  ASN189      0.2292
     84  O         11.7930   27.0670   77.9640 O.2   189  ASN189     -0.2864
     85  CB        10.4900   25.2450   80.1640 C.3   189  ASN189      0.1181
     86  CG         9.4480   24.5230   81.0050 C.2   189  ASN189      0.2629
     87  OD1        9.8290   23.8930   82.0420 O.2   189  ASN189     -0.2716
     88  ND2        8.1600   24.5410   80.5790 N.am  189  ASN189     -0.0877
     89  N         19.2100   24.5250   79.5600 N.3   194  GLN194     -0.1245
     90  CA        18.4820   24.2130   78.3030 C.3   194  GLN194      0.1566
     91  C         19.5020   24.0590   77.1460 C.2   194  GLN194      0.2260
     92  O         20.4440   24.8490   77.0230 O.2   194  GLN194     -0.2867
     93  CB        17.4450   25.3000   77.9820 C.3   194  GLN194      0.0367
     94  CG        16.5370   24.9030   76.7510 C.3   194  GLN194      0.0905
     95  CD        15.3400   25.7330   76.5370 C.2   194  GLN194      0.2608
     96  OE1       14.2590   25.1950   76.0740 O.2   194  GLN194     -0.2717
     97  NE2       15.4820   27.0250   76.7250 N.am  194  GLN194     -0.0878
     98  N         17.7940   25.1380   71.2150 N.3   198  LYS198     -0.1245
     99  CA        16.5170   25.8330   71.4630 C.3   198  LYS198      0.1561
    100  C         16.6340   27.3720   71.4390 C.2   198  LYS198      0.2260
    101  O         17.7200   27.9400   71.6440 O.2   198  LYS198     -0.2867
    102  CB        15.9280   25.3540   72.8160 C.3   198  LYS198      0.0271
    103  CG        15.6620   23.8500   72.8920 C.3   198  LYS198      0.0035
    104  CD        14.6750   23.3610   71.8070 C.3   198  LYS198      0.0206
    105  CE        14.4220   21.8380   71.9260 C.3   198  LYS198      0.1093
    106  NZ        13.5230   21.3740   73.0580 N.3   198  LYS198     -0.1314
    107  N          4.9690   32.6060   71.8970 N.3   223  ARG223     -0.1245
    108  CA         5.1240   31.4940   72.8520 C.3   223  ARG223      0.1563
    109  C          4.8140   32.0130   74.2870 C.2   223  ARG223      0.2260
    110  O          5.0250   33.2030   74.5780 O.2   223  ARG223     -0.2867
    111  CB         6.5390   30.9030   72.7650 C.3   223  ARG223      0.0307
    112  CG         6.9030   30.3260   71.3800 C.3   223  ARG223      0.0489
    113  CD         6.0440   29.1570   71.0340 C.3   223  ARG223      0.2205
    114  NE         6.2790   28.5100   69.7450 N.pl3 223  ARG223     -0.0865
    115  CZ         5.6290   28.7920   68.6050 C.cat 223  ARG223      0.5346
    116  NH1        4.7950   29.7920   68.5150 N.pl3 223  ARG223      0.1354
    117  NH2        5.8500   28.0690   67.5150 N.pl3 223  ARG223      0.1354
    118  N         10.1310   27.8650   59.5150 N.3   282  ARG282     -0.1245
    119  CA         9.7990   26.4430   59.7890 C.3   282  ARG282      0.1563
    120  C          8.5390   25.9370   59.0690 C.2   282  ARG282      0.2260
    121  O          7.4970   26.5990   59.0300 O.2   282  ARG282     -0.2867
    122  CB         9.6450   26.2350   61.3060 C.3   282  ARG282      0.0307
    123  CG         9.2800   24.8130   61.7570 C.3   282  ARG282      0.0489
    124  CD         8.9730   24.7730   63.2530 C.3   282  ARG282      0.2205
    125  NE        10.2100   24.9270   64.0350 N.pl3 282  ARG282     -0.0865
    126  CZ        10.2730   25.1030   65.3660 C.cat 282  ARG282      0.5346
    127  NH1        9.1780   25.2790   66.0870 N.pl3 282  ARG282      0.1354
    128  NH2       11.4400   25.1440   65.9820 N.pl3 282  ARG282      0.1354
@<TRIPOS>BOND
     1   121   120    2
     2   120   119    1
     3   118   119    1
     4   119   122    1
     5   122   123    1
     6   123   124    1
     7   124   125    1
     8   125   126    2
     9    20    19    2
    10    19    18    1
    11   126   128    1
    12   126   127    1
    13    49    50    1
    14    21    18    1
    15    21    22    1
    16    18    17    1
    17    23    22    2
    18    10     9    2
    19    22    24   am
    20    16    14   ar
    21    16    15   ar
    22   117   115    1
    23    14    12   ar
    24    50    53    1
    25    50    51    1
    26    17     9   am
    27    15    13   ar
    28     9     8    1
    29    53    54    1
    30    12    13   ar
    31    12    11    1
    32    51    52    2
    33   116   115    1
    34   115   114    2
    35    11     8    1
    36     8     7    1
    37    48    46   ar
    38    54    56   ar
    39    54    55   ar
    40   114   113    1
    41    43    42    2
    42    56    58   ar
    43     7     3   am
    44    46    47   ar
    45    46    45    1
    46    55    57   ar
    47    44    45    1
    48    44    41    1
    49    42    41    1
    50   113   112    1
    51    98    99    1
    52     3     4    2
    53     3     2    1
    54    58    59   ar
    55   112   111    1
    56   100    99    1
    57   100   101    2
    58    99   102    1
    59    41    40    1
    60   104   105    1
    61   104   103    1
    62    57    59   ar
    63   107   108    1
    64     1     2    1
    65   105   106    1
    66    59    60    1
    67     2     5    1
    68   111   108    1
    69   102   103    1
    70   108   109    1
    71    40    34   am
    72    35    34    2
    73     6     5    1
    74    80    78   am
    75    34    33    1
    76    79    78    2
    77    31    29    1
    78    78    77    1
    79    38    37   ar
    80   109   110    2
    81    30    29    1
    82    37    39   ar
    83    37    36    1
    84    33    36    1
    85    33    32    1
    86    29    26    1
    87    28    27    2
    88    32    27   am
    89    77    74    1
    90    27    26    1
    91    96    95    2
    92    26    25    1
    93    95    97   am
    94    95    94    1
    95    74    73    1
    96    74    75    1
    97    94    93    1
    98    73    69   am
    99    92    91    2
   100    91    90    1
   101    64    63    2
   102    69    68    1
   103    69    70    2
   104    68    71    1
   105    68    67    1
   106    84    83    2
   107    93    90    1
   108    75    81   am
   109    75    76    2
   110    71    72    1
   111    90    89    1
   112    81    82    1
   113    63    67   am
   114    63    62    1
   115    83    82    1
   116    82    85    1
   117    61    62    1
   118    62    65    1
   119    85    86    1
   120    88    86   am
   121    65    66    1
   122    86    87    2
