@<TRIPOS>MOLECULE
tmp/1ketA00.pdb
 234 227 0 0 0
SMALL
GASTEIGER

@<TRIPOS>ATOM
      1  N         12.6830   16.3150   71.6310 N.3    84  SER84      -0.1202
      2  CA        11.9080   17.5410   71.8250 C.3    84  SER84       0.2020
      3  C         11.9700   18.6930   70.8360 C.2    84  SER84       0.2619
      4  O         11.3380   19.7220   71.0830 O.2    84  SER84      -0.2717
      5  CB        12.2760   18.1240   73.1890 C.3    84  SER84       0.2103
      6  OG        13.5570   18.7390   73.0990 O.3    84  SER84      -0.2182
      7  N         12.6950   18.5510   69.7320 N.am   85  HIS85      -0.1961
      8  CA        12.8300   19.6750   68.8020 C.3    85  HIS85       0.1787
      9  C         12.0730   19.5250   67.4780 C.2    85  HIS85       0.2620
     10  O         12.2770   18.5620   66.7430 O.2    85  HIS85      -0.2715
     11  CB        14.3280   19.9110   68.5510 C.3    85  HIS85       0.0785
     12  CG        14.6490   21.2270   67.9090 C.ar   85  HIS85       0.0821
     13  ND1       13.9690   22.3890   68.2040 N.ar   85  HIS85      -0.2267
     14  CD2       15.6320   21.5760   67.0460 C.ar   85  HIS85       0.1154
     15  CE1       14.5210   23.3980   67.5510 C.ar   85  HIS85       0.1986
     16  NE2       15.5330   22.9310   66.8420 N.ar   85  HIS85      -0.2212
     17  N         11.2010   20.4870   67.1790 N.am   86  ASN86      -0.1958
     18  CA        10.4230   20.4560   65.9350 C.3    86  ASN86       0.1819
     19  C         11.2930   20.3940   64.6780 C.2    86  ASN86       0.2621
     20  O         11.0240   19.6070   63.7670 O.2    86  ASN86      -0.2715
     21  CB         9.5090   21.6840   65.8370 C.3    86  ASN86       0.1195
     22  CG         8.2510   21.5560   66.6840 C.2    86  ASN86       0.2630
     23  OD1        7.4000   20.6990   66.4290 O.2    86  ASN86      -0.2716
     24  ND2        8.1250   22.4130   67.6930 N.am   86  ASN86      -0.0877
     25  N         12.3280   21.2280   64.6160 N.am   87  ASP87      -0.1971
     26  CA        13.1920   21.2490   63.4380 C.3    87  ASP87       0.1709
     27  C         13.8690   19.9050   63.1780 C.2    87  ASP87       0.2293
     28  O         14.0350   19.5070   62.0230 O.2    87  ASP87      -0.2864
     29  CB        14.2260   22.3750   63.5630 C.3    87  ASP87       0.1436
     30  CG        13.5940   23.7560   63.4490 C.2    87  ASP87       0.3671
     31  OD1       14.0030   24.6710   64.2040 O.co2  87  ASP87      -0.2456
     32  OD2       12.6880   23.9290   62.5990 O.co2  87  ASP87      -0.2456
     33  N          1.7940   22.1840   72.5860 N.3   125  GLU125     -0.1245
     34  CA         1.7500   22.0460   71.1300 C.3   125  GLU125      0.1567
     35  C          0.7810   20.9600   70.6560 C.2   125  GLU125      0.2260
     36  O          0.4570   20.8840   69.4680 O.2   125  GLU125     -0.2867
     37  CB         3.1650   21.7830   70.5790 C.3   125  GLU125      0.0388
     38  CG         4.1770   22.8230   71.0360 C.3   125  GLU125      0.1160
     39  CD         5.4940   22.7970   70.2730 C.2   125  GLU125      0.3649
     40  OE1        6.4340   23.4810   70.7260 O.co2 125  GLU125     -0.2457
     41  OE2        5.5960   22.1160   69.2300 O.co2 125  GLU125     -0.2457
     42  N          6.8970   16.1100   65.8110 N.3   159  TYR159     -0.1241
     43  CA         7.1630   16.2380   67.2460 C.3   159  TYR159      0.1605
     44  C          5.8650   16.3530   68.0500 C.2   159  TYR159      0.2264
     45  O          5.6070   15.5520   68.9510 O.2   159  TYR159     -0.2867
     46  CB         8.0330   17.4680   67.5510 C.3   159  TYR159      0.0534
     47  CG         7.9930   17.8800   69.0210 C.ar  159  TYR159     -0.0201
     48  CD1        8.4630   17.0240   70.0180 C.ar  159  TYR159     -0.0009
     49  CD2        7.4320   19.1010   69.4150 C.ar  159  TYR159     -0.0009
     50  CE1        8.3750   17.3680   71.3770 C.ar  159  TYR159      0.0417
     51  CE2        7.3330   19.4560   70.7740 C.ar  159  TYR159      0.0417
     52  CZ         7.8080   18.5800   71.7460 C.ar  159  TYR159      0.1957
     53  OH         7.7080   18.9020   73.0860 O.3   159  TYR159     -0.2866
     54  N          6.0900   27.1030   76.5690 N.3   188  ASN188     -0.1240
     55  CA         7.5450   27.1680   76.3450 C.3   188  ASN188      0.1653
     56  C          8.4030   27.5110   77.5660 C.2   188  ASN188      0.2266
     57  O          8.2640   28.5890   78.1410 O.2   188  ASN188     -0.2867
     58  CB         7.8830   28.1840   75.2360 C.3   188  ASN188      0.1155
     59  CG         7.5350   27.6860   73.8380 C.2   188  ASN188      0.2627
     60  OD1        8.4070   27.5240   72.9880 O.2   188  ASN188     -0.2716
     61  ND2        6.2450   27.4300   73.6020 N.am  188  ASN188     -0.0877
     62  N         19.3650   24.8740   79.0820 N.3   194  GLN194     -0.1245
     63  CA        18.6070   24.5470   77.8660 C.3   194  GLN194      0.1566
     64  C         19.5970   24.4150   76.7020 C.2   194  GLN194      0.2260
     65  O         20.5130   25.2320   76.5580 O.2   194  GLN194     -0.2867
     66  CB        17.5550   25.6250   77.5360 C.3   194  GLN194      0.0367
     67  CG        16.6380   25.2230   76.3600 C.3   194  GLN194      0.0905
     68  CD        15.4350   26.1460   76.1680 C.2   194  GLN194      0.2608
     69  OE1       15.5230   27.3560   76.4060 O.2   194  GLN194     -0.2717
     70  NE2       14.3120   25.5820   75.7560 N.am  194  GLN194     -0.0878
     71  N         20.2570   24.5920   70.6950 N.3   197  GLU197     -0.1231
     72  CA        19.5440   24.4910   69.4210 C.3   197  GLU197      0.1699
     73  C         18.2140   25.2480   69.5740 C.2   197  GLU197      0.2592
     74  O         17.6010   25.6540   68.5830 O.2   197  GLU197     -0.2718
     75  CB        19.2690   23.0230   69.0500 C.3   197  GLU197      0.0402
     76  CG        18.1460   22.3690   69.8640 C.3   197  GLU197      0.1161
     77  CD        17.9800   20.8760   69.6100 C.2   197  GLU197      0.3649
     78  OE1       18.5120   20.3510   68.5990 O.co2 197  GLU197     -0.2457
     79  OE2       17.2980   20.2240   70.4290 O.co2 197  GLU197     -0.2457
     80  N         17.7780   25.4470   70.8200 N.am  198  LYS198     -0.1966
     81  CA        16.5090   26.1390   71.0870 C.3   198  LYS198      0.1728
     82  C         16.6250   27.6650   70.9620 C.2   198  LYS198      0.2616
     83  O         17.6910   28.2370   71.1820 O.2   198  LYS198     -0.2715
     84  CB        15.9660   25.7340   72.4700 C.3   198  LYS198      0.0311
     85  CG        15.6490   24.2280   72.6010 C.3   198  LYS198      0.0038
     86  CD        14.5840   23.7760   71.5880 C.3   198  LYS198      0.0206
     87  CE        14.3300   22.2570   71.6190 C.3   198  LYS198      0.1093
     88  NZ        13.5790   21.7900   72.8330 N.3   198  LYS198     -0.1314
     89  N         15.5110   28.3110   70.6200 N.am  199  PHE199     -0.1974
     90  CA        15.4550   29.7560   70.3710 C.3   199  PHE199      0.1639
     91  C         16.2180   30.7320   71.2660 C.2   199  PHE199      0.2290
     92  O         17.1280   31.4160   70.7930 O.2   199  PHE199     -0.2864
     93  CB        13.9910   30.2160   70.2790 C.3   199  PHE199      0.0560
     94  CG        13.8280   31.6830   69.9510 C.ar  199  PHE199     -0.0200
     95  CD1       14.4340   32.2310   68.8250 C.ar  199  PHE199     -0.0042
     96  CD2       13.0450   32.5080   70.7560 C.ar  199  PHE199     -0.0042
     97  CE1       14.2620   33.5810   68.4980 C.ar  199  PHE199     -0.0003
     98  CE2       12.8640   33.8590   70.4410 C.ar  199  PHE199     -0.0003
     99  CZ        13.4750   34.3960   69.3080 C.ar  199  PHE199     -0.0000
    100  N         20.0430   29.8380   71.7360 N.3   202  ARG202     -0.1231
    101  CA        20.7780   29.9310   70.4710 C.3   202  ARG202      0.1694
    102  C         21.1790   31.3830   70.1980 C.2   202  ARG202      0.2591
    103  O         22.3040   31.6530   69.7730 O.2   202  ARG202     -0.2718
    104  CB        19.9460   29.4150   69.2850 C.3   202  ARG202      0.0321
    105  CG        20.7460   29.4050   67.9590 C.3   202  ARG202      0.0489
    106  CD        19.9250   28.9980   66.7240 C.3   202  ARG202      0.2205
    107  NE        20.7780   28.9370   65.5270 N.pl3 202  ARG202     -0.0865
    108  CZ        20.3320   28.8620   64.2740 C.cat 202  ARG202      0.5346
    109  NH1       19.0280   28.8370   64.0240 N.pl3 202  ARG202      0.1354
    110  NH2       21.1940   28.8120   63.2610 N.pl3 202  ARG202      0.1354
    111  N         20.2670   32.3220   70.4420 N.am  203  GLN203     -0.1979
    112  CA        20.5660   33.7360   70.1900 C.3   203  GLN203      0.1601
    113  C         21.6110   34.2770   71.1730 C.2   203  GLN203      0.2287
    114  O         22.5490   34.9720   70.7800 O.2   203  GLN203     -0.2864
    115  CB        19.2950   34.5920   70.2840 C.3   203  GLN203      0.0394
    116  CG        18.0840   34.0690   69.5060 C.3   203  GLN203      0.0908
    117  CD        18.4480   33.3870   68.2000 C.2   203  GLN203      0.2608
    118  OE1       19.2640   33.8900   67.4250 O.2   203  GLN203     -0.2717
    119  NE2       17.8300   32.2360   67.9420 N.am  203  GLN203     -0.0878
    120  N         19.5660   34.5490   64.7510 N.3   214  LYS214     -0.1231
    121  CA        18.7540   34.1460   63.5960 C.3   214  LYS214      0.1693
    122  C         17.2510   34.1820   63.9030 C.2   214  LYS214      0.2592
    123  O         16.7930   33.5460   64.8530 O.2   214  LYS214     -0.2718
    124  CB        19.1360   32.7240   63.1680 C.3   214  LYS214      0.0285
    125  CG        20.6340   32.4790   63.0190 C.3   214  LYS214      0.0035
    126  CD        21.2240   33.2080   61.8210 C.3   214  LYS214      0.0206
    127  CE        22.7030   32.8640   61.6570 C.3   214  LYS214      0.1093
    128  NZ        23.2900   33.4220   60.4060 N.3   214  LYS214     -0.1314
    129  N         16.4880   34.9060   63.0870 N.am  215  LEU215     -0.1966
    130  CA        15.0430   35.0280   63.2800 C.3   215  LEU215      0.1728
    131  C         14.2670   34.4040   62.1180 C.2   215  LEU215      0.2616
    132  O         14.4820   34.7680   60.9630 O.2   215  LEU215     -0.2715
    133  CB        14.6660   36.5100   63.4060 C.3   215  LEU215      0.0311
    134  CG        13.2170   36.8420   63.7750 C.3   215  LEU215      0.0022
    135  CD1       12.9390   36.3550   65.1980 C.3   215  LEU215      0.0001
    136  CD2       12.9840   38.3490   63.6740 C.3   215  LEU215      0.0001
    137  N         13.3650   33.4690   62.4180 N.am  216  TYR216     -0.1974
    138  CA        12.5750   32.8200   61.3730 C.3   216  TYR216      0.1639
    139  C         11.5830   33.8270   60.7730 C.2   216  TYR216      0.2290
    140  O         10.7440   34.3860   61.4840 O.2   216  TYR216     -0.2864
    141  CB        11.8100   31.6110   61.9430 C.3   216  TYR216      0.0560
    142  CG        12.6590   30.3920   62.3030 C.ar  216  TYR216     -0.0198
    143  CD1       14.0580   30.4480   62.2950 C.ar  216  TYR216     -0.0009
    144  CD2       12.0540   29.1900   62.6870 C.ar  216  TYR216     -0.0009
    145  CE1       14.8320   29.3350   62.6660 C.ar  216  TYR216      0.0417
    146  CE2       12.8180   28.0710   63.0610 C.ar  216  TYR216      0.0417
    147  CZ        14.2030   28.1520   63.0510 C.ar  216  TYR216      0.1957
    148  OH        14.9580   27.0600   63.4450 O.3   216  TYR216     -0.2866
    149  N          5.5400   35.0910   65.0600 N.3   221  ASN221     -0.1240
    150  CA         5.0760   34.0080   65.9170 C.3   221  ASN221      0.1653
    151  C          5.1400   34.3240   67.4120 C.2   221  ASN221      0.2266
    152  O          6.0720   34.9860   67.8820 O.2   221  ASN221     -0.2867
    153  CB         5.8420   32.7300   65.5720 C.3   221  ASN221      0.1155
    154  CG         5.8170   32.4370   64.0750 C.2   221  ASN221      0.2627
    155  OD1        6.4970   33.1050   63.2930 O.2   221  ASN221     -0.2716
    156  ND2        5.0140   31.4600   63.6690 N.am  221  ASN221     -0.0877
    157  N          4.9380   32.9310   71.4980 N.3   223  ARG223     -0.1245
    158  CA         5.1400   31.8220   72.4310 C.3   223  ARG223      0.1563
    159  C          4.8480   32.3320   73.8510 C.2   223  ARG223      0.2260
    160  O          5.1040   33.4940   74.1580 O.2   223  ARG223     -0.2867
    161  CB         6.5780   31.2950   72.3160 C.3   223  ARG223      0.0307
    162  CG         6.9110   30.6780   70.9360 C.3   223  ARG223      0.0489
    163  CD         6.0270   29.4670   70.6510 C.3   223  ARG223      0.2205
    164  NE         6.3010   28.8030   69.3730 N.pl3 223  ARG223     -0.0865
    165  CZ         5.7010   29.0930   68.2190 C.cat 223  ARG223      0.5346
    166  NH1        4.7830   30.0510   68.1510 N.pl3 223  ARG223      0.1354
    167  NH2        5.9970   28.3940   67.1310 N.pl3 223  ARG223      0.1354
    168  N          5.9760   32.2130   77.3790 N.3   225  TRP225     -0.1241
    169  CA         7.1410   31.8420   78.1890 C.3   225  TRP225      0.1605
    170  C          6.9740   31.6380   79.6950 C.2   225  TRP225      0.2264
    171  O          6.3330   32.4350   80.3800 O.2   225  TRP225     -0.2867
    172  CB         8.2700   32.8540   77.9430 C.3   225  TRP225      0.0550
    173  CG         8.6630   32.9570   76.4900 C.ar  225  TRP225      0.0003
    174  CD1        8.2400   33.8960   75.5840 C.ar  225  TRP225      0.0946
    175  CD2        9.5030   32.0490   75.7620 C.ar  225  TRP225      0.0152
    176  NE1        8.7650   33.6250   74.3390 N.ar  225  TRP225     -0.2442
    177  CE2        9.5430   32.4980   74.4210 C.ar  225  TRP225      0.0810
    178  CE3       10.2250   30.8970   76.1130 C.ar  225  TRP225      0.0012
    179  CZ2       10.2760   31.8350   73.4280 C.ar  225  TRP225      0.0191
    180  CZ3       10.9580   30.2350   75.1190 C.ar  225  TRP225      0.0001
    181  CH2       10.9740   30.7100   73.7950 C.ar  225  TRP225      0.0015
    182  N          8.3900   36.5010   68.7900 N.3   258  ASN258     -0.1240
    183  CA         9.8250   36.2470   68.6480 C.3   258  ASN258      0.1653
    184  C         10.6480   37.5130   68.4070 C.2   258  ASN258      0.2266
    185  O         11.7710   37.6390   68.9000 O.2   258  ASN258     -0.2867
    186  CB        10.0770   35.2540   67.5030 C.3   258  ASN258      0.1155
    187  CG         9.5390   33.8580   67.7980 C.2   258  ASN258      0.2627
    188  OD1        9.1630   33.5510   68.9370 O.2   258  ASN258     -0.2716
    189  ND2        9.4910   33.0120   66.7770 N.am  258  ASN258     -0.0877
    190  N         10.1260   28.0250   59.0930 N.3   282  ARG282     -0.1245
    191  CA         9.8380   26.6120   59.3550 C.3   282  ARG282      0.1563
    192  C          8.5760   26.1060   58.6520 C.2   282  ARG282      0.2260
    193  O          7.5530   26.7880   58.6240 O.2   282  ARG282     -0.2867
    194  CB         9.7020   26.4010   60.8710 C.3   282  ARG282      0.0307
    195  CG         9.3010   24.9940   61.3040 C.3   282  ARG282      0.0489
    196  CD         9.0360   24.9570   62.8110 C.3   282  ARG282      0.2205
    197  NE        10.2590   25.1240   63.5950 N.pl3 282  ARG282     -0.0865
    198  CZ        10.2850   25.3800   64.9010 C.cat 282  ARG282      0.5346
    199  NH1        9.1500   25.5070   65.5790 N.pl3 282  ARG282      0.1354
    200  NH2       11.4470   25.4940   65.5330 N.pl3 282  ARG282      0.1354
    201  N          4.9860   25.9710   60.3820 N.3   285  HIS285     -0.1241
    202  CA         5.2040   26.7740   61.5920 C.3   285  HIS285      0.1621
    203  C          3.9240   27.1940   62.3370 C.2   285  HIS285      0.2264
    204  O          3.0200   27.7920   61.7450 O.2   285  HIS285     -0.2867
    205  CB         6.0070   28.0190   61.1970 C.3   285  HIS285      0.0745
    206  CG         6.7130   28.6920   62.3360 C.ar  285  HIS285      0.0817
    207  ND1        7.5780   29.7500   62.1450 N.ar  285  HIS285     -0.2268
    208  CD2        6.6820   28.4700   63.6720 C.ar  285  HIS285      0.1154
    209  CE1        8.0480   30.1510   63.3130 C.ar  285  HIS285      0.1986
    210  NE2        7.5200   29.3910   64.2570 N.ar  285  HIS285     -0.2212
    211  N          0.7400   30.3730   70.5580 N.3   289  TYR289     -0.1241
    212  CA         0.4080   29.4290   71.6320 C.3   289  TYR289      0.1605
    213  C          0.0470   30.3040   72.8330 C.2   289  TYR289      0.2264
    214  O          0.6650   31.3490   73.0460 O.2   289  TYR289     -0.2867
    215  CB         1.5970   28.5560   72.0670 C.3   289  TYR289      0.0534
    216  CG         2.1830   27.5940   71.0520 C.ar  289  TYR289     -0.0201
    217  CD1        1.3790   26.8900   70.1530 C.ar  289  TYR289     -0.0009
    218  CD2        3.5530   27.3420   71.0440 C.ar  289  TYR289     -0.0009
    219  CE1        1.9420   25.9530   69.2660 C.ar  289  TYR289      0.0417
    220  CE2        4.1200   26.4190   70.1780 C.ar  289  TYR289      0.0417
    221  CZ         3.3160   25.7260   69.2920 C.ar  289  TYR289      0.1957
    222  OH         3.9030   24.8000   68.4510 O.3   289  TYR289     -0.2866
    223  N         22.2040   23.4540   61.1970 N.3   338  TYR338     -0.1241
    224  CA        21.1740   24.3870   60.7370 C.3   338  TYR338      0.1605
    225  C         21.4550   24.8910   59.3160 C.2   338  TYR338      0.2264
    226  O         20.5290   25.0970   58.5340 O.2   338  TYR338     -0.2867
    227  CB        21.0660   25.5920   61.6920 C.3   338  TYR338      0.0534
    228  CG        20.1010   25.4030   62.8560 C.ar  338  TYR338     -0.0201
    229  CD1       20.5210   25.5720   64.1800 C.ar  338  TYR338     -0.0009
    230  CD2       18.7690   25.0560   62.6290 C.ar  338  TYR338     -0.0009
    231  CE1       19.6300   25.3940   65.2530 C.ar  338  TYR338      0.0417
    232  CE2       17.8700   24.8760   63.6920 C.ar  338  TYR338      0.0417
    233  CZ        18.3060   25.0440   64.9970 C.ar  338  TYR338      0.1957
    234  OH        17.4140   24.8440   66.0390 O.3   338  TYR338     -0.2866
@<TRIPOS>BOND
     1   226   225    2
     2   193   192    2
     3   192   191    1
     4   190   191    1
     5   225   224    1
     6   191   194    1
     7   201   202    1
     8   128   127    1
     9   224   223    1
    10   224   227    1
    11   139   138    1
    12   139   140    2
    13   194   195    1
    14   132   131    2
    15   205   202    1
    16   205   206    1
    17   195   196    1
    18   138   141    1
    19   138   137    1
    20   202   203    1
    21   127   126    1
    22   227   228    1
    23   204   203    2
    24   126   125    1
    25   141   142    1
    26    28    27    2
    27   131   137   am
    28   131   130    1
    29   207   206   ar
    30   207   209   ar
    31   143   142   ar
    32   143   145   ar
    33   142   144   ar
    34   206   208   ar
    35    32    30   ar
    36   230   228   ar
    37   230   232   ar
    38   145   147   ar
    39   144   146   ar
    40   196   197    1
    41   228   229   ar
    42   125   124    1
    43   147   146   ar
    44   147   148    1
    45   129   130    1
    46   129   122   am
    47   124   121    1
    48    27    26    1
    49   110   108    1
    50   130   133    1
    51   155   154    2
    52   209   210   ar
    53   133   134    1
    54    26    29    1
    55    26    25    1
    56    30    29    1
    57    30    31   ar
    58   197   198    2
    59   121   122    1
    60   121   120    1
    61   156   154   am
    62   208   210   ar
    63   136   134    1
    64   232   233   ar
    65    20    19    2
    66   134   135    1
    67   122   123    2
    68   109   108    1
    69   154   153    1
    70   229   231   ar
    71   108   107    2
    72    25    19   am
    73    19    18    1
    74   198   200    1
    75   198   199    1
    76   233   231   ar
    77   233   234    1
    78   149   150    1
    79   107   106    1
    80   153   150    1
    81    42    43    1
    82    21    18    1
    83    21    22    1
    84   150   151    1
    85    18    17    1
    86    23    22    2
    87    22    24   am
    88   106   105    1
    89    10     9    2
    90   189   187   am
    91    16    14   ar
    92    16    15   ar
    93    14    12   ar
    94   167   165    1
    95    17     9   am
    96    43    46    1
    97    43    44    1
    98   151   152    2
    99   118   117    2
   100     9     8    1
   101   186   187    1
   102   186   183    1
   103    46    47    1
   104    15    13   ar
   105   187   188    2
   106    12    13   ar
   107    12    11    1
   108   119   117   am
   109   105   104    1
   110    44    45    2
   111   166   165    1
   112   117   116    1
   113   165   164    2
   114   184   183    1
   115   184   185    2
   116   222   221    1
   117    97    95   ar
   118    97    99   ar
   119    11     8    1
   120    74    73    2
   121    78    77   ar
   122   183   182    1
   123     8     7    1
   124    95    94   ar
   125    47    49   ar
   126    47    48   ar
   127    75    72    1
   128    75    76    1
   129    41    39   ar
   130   219   221   ar
   131   219   217   ar
   132   104   101    1
   133   221   220   ar
   134    99    98   ar
   135   164   163    1
   136    49    51   ar
   137    72    73    1
   138    72    71    1
   139    36    35    2
   140   116   115    1
   141    73    80   am
   142    77    76    1
   143    77    79   ar
   144     7     3   am
   145   103   102    2
   146    94    93    1
   147    94    96   ar
   148    48    50   ar
   149   217   216   ar
   150   220   218   ar
   151   112   115    1
   152   112   111    1
   153   112   113    1
   154   102   111   am
   155   102   101    1
   156    39    40   ar
   157    39    38    1
   158    93    90    1
   159    90    89    1
   160    90    91    1
   161    98    96   ar
   162   101   100    1
   163   211   212    1
   164    37    38    1
   165    37    34    1
   166    89    82   am
   167   163   162    1
   168    35    34    1
   169    51    52   ar
   170   114   113    2
   171    92    91    2
   172    80    81    1
   173     3     4    2
   174     3     2    1
   175   162   161    1
   176    82    81    1
   177    82    83    2
   178   218   216   ar
   179   216   215    1
   180    81    84    1
   181    34    33    1
   182    50    52   ar
   183   157   158    1
   184    86    87    1
   185    86    85    1
   186    87    88    1
   187     1     2    1
   188   212   215    1
   189   212   213    1
   190    52    53    1
   191     2     5    1
   192   161   158    1
   193   158   159    1
   194    84    85    1
   195   213   214    2
   196    60    59    2
   197     6     5    1
   198   179   181   ar
   199   179   177   ar
   200    61    59   am
   201   181   180   ar
   202    59    58    1
   203   159   160    2
   204   176   177   ar
   205   176   174   ar
   206   177   175   ar
   207   180   178   ar
   208    58    55    1
   209   174   173   ar
   210    70    68   am
   211   175   178   ar
   212   175   173   ar
   213    68    67    1
   214    68    69    2
   215    55    54    1
   216    55    56    1
   217    67    66    1
   218   173   172    1
   219    65    64    2
   220    64    63    1
   221   168   169    1
   222    66    63    1
   223    56    57    2
   224    63    62    1
   225   172   169    1
   226   169   170    1
   227   170   171    2
