@<TRIPOS>MOLECULE
tmp/1keuA00.pdb
 250 244 0 0 0
SMALL
GASTEIGER

@<TRIPOS>ATOM
      1  N         69.7880   31.9070   10.3180 N.3    84  SER84      -0.1202
      2  CA        68.3220   31.9140   10.3340 C.3    84  SER84       0.2020
      3  C         67.5020   33.0460    9.7220 C.2    84  SER84       0.2619
      4  O         66.2690   32.9880    9.7730 O.2    84  SER84      -0.2717
      5  CB        67.8450   31.7600   11.7790 C.3    84  SER84       0.2103
      6  OG        68.1060   32.9550   12.5000 O.3    84  SER84      -0.2182
      7  N         68.1350   34.0620    9.1460 N.am   85  HIS85      -0.1961
      8  CA        67.3520   35.1770    8.6110 C.3    85  HIS85       0.1787
      9  C         67.1070   35.1760    7.1040 C.2    85  HIS85       0.2620
     10  O         68.0350   35.3170    6.3090 O.2    85  HIS85      -0.2715
     11  CB        67.9900   36.5070    9.0420 C.3    85  HIS85       0.0785
     12  CG        67.0780   37.6910    8.9110 C.ar   85  HIS85       0.0821
     13  ND1       65.7070   37.5920    9.0350 N.ar   85  HIS85      -0.2267
     14  CD2       67.3420   39.0070    8.7290 C.ar   85  HIS85       0.1154
     15  CE1       65.1670   38.7930    8.9360 C.ar   85  HIS85       0.1986
     16  NE2       66.1370   39.6690    8.7490 N.ar   85  HIS85      -0.2212
     17  N         65.8400   35.0290    6.7240 N.am   86  VAL86      -0.1963
     18  CA        65.4460   35.0260    5.3180 C.3    86  VAL86       0.1727
     19  C         66.0080   36.2290    4.5620 C.2    86  VAL86       0.2616
     20  O         66.5660   36.0720    3.4820 O.2    86  VAL86      -0.2715
     21  CB        63.9010   35.0320    5.1610 C.3    86  VAL86       0.0290
     22  CG1       63.5200   35.2230    3.6950 C.3    86  VAL86       0.0023
     23  CG2       63.3170   33.7300    5.6830 C.3    86  VAL86       0.0023
     24  N         65.8620   37.4290    5.1220 N.am   87  ASP87      -0.1971
     25  CA        66.3660   38.6240    4.4500 C.3    87  ASP87       0.1709
     26  C         67.8740   38.5780    4.2040 C.2    87  ASP87       0.2293
     27  O         68.3500   39.0640    3.1740 O.2    87  ASP87      -0.2864
     28  CB        65.9970   39.8920    5.2290 C.3    87  ASP87       0.1436
     29  CG        64.5010   40.1610    5.2200 C.2    87  ASP87       0.3671
     30  OD1       63.8860   40.0220    4.1410 O.co2  87  ASP87      -0.2456
     31  OD2       63.9390   40.5130    6.2810 O.co2  87  ASP87      -0.2456
     32  N         62.4850   24.1440   10.6910 N.3   133  THR133     -0.1203
     33  CA        61.4160   25.1340   10.5380 C.3   133  THR133      0.1994
     34  C         60.2080   24.7220    9.6900 C.2   133  THR133      0.2618
     35  O         60.2850   23.8020    8.8810 O.2   133  THR133     -0.2717
     36  CB        62.0040   26.4320    9.9150 C.3   133  THR133      0.1784
     37  OG1       60.9620   27.3860    9.6700 O.3   133  THR133     -0.2211
     38  CG2       62.6800   26.1110    8.5890 C.3   133  THR133      0.0376
     39  N         59.0970   25.4330    9.8660 N.am  134  ASP134     -0.1959
     40  CA        57.8800   25.1520    9.1070 C.3   134  ASP134      0.1840
     41  C         57.9870   25.6610    7.6680 C.2   134  ASP134      0.2621
     42  O         57.2230   25.2500    6.7940 O.2   134  ASP134     -0.2715
     43  CB        56.6500   25.7840    9.7950 C.3   134  ASP134      0.1450
     44  CG        56.7310   27.3200    9.8970 C.2   134  ASP134      0.3671
     45  OD1       57.8140   27.8940    9.6500 O.co2 134  ASP134     -0.2456
     46  OD2       55.7060   27.9590   10.2430 O.co2 134  ASP134     -0.2456
     47  N         58.9560   26.5350    7.4200 N.am  135  GLU135     -0.1977
     48  CA        59.1330   27.1180    6.0970 C.3   135  GLU135      0.1602
     49  C         59.4980   26.1360    4.9910 C.2   135  GLU135      0.2287
     50  O         59.4020   26.4720    3.8060 O.2   135  GLU135     -0.2864
     51  CB        60.1640   28.2510    6.1630 C.3   135  GLU135      0.0415
     52  CG        59.6990   29.4150    7.0230 C.3   135  GLU135      0.1163
     53  CD        60.5950   30.6350    6.9220 C.2   135  GLU135      0.3649
     54  OE1       61.3040   30.7840    5.9060 O.co2 135  GLU135     -0.2457
     55  OE2       60.5750   31.4610    7.8560 O.co2 135  GLU135     -0.2457
     56  N         67.1120   30.4850    2.3860 N.3   167  TYR167     -0.1241
     57  CA        67.0960   30.0060    3.7640 C.3   167  TYR167      0.1605
     58  C         66.2620   28.7230    3.8920 C.2   167  TYR167      0.2264
     59  O         66.7740   27.6940    4.3280 O.2   167  TYR167     -0.2867
     60  CB        66.5240   31.0630    4.7150 C.3   167  TYR167      0.0534
     61  CG        66.1350   30.4950    6.0710 C.ar  167  TYR167     -0.0201
     62  CD1       67.1060   29.9950    6.9460 C.ar  167  TYR167     -0.0009
     63  CD2       64.7950   30.4200    6.4610 C.ar  167  TYR167     -0.0009
     64  CE1       66.7560   29.4320    8.1730 C.ar  167  TYR167      0.0417
     65  CE2       64.4280   29.8530    7.6960 C.ar  167  TYR167      0.0417
     66  CZ        65.4200   29.3610    8.5430 C.ar  167  TYR167      0.1957
     67  OH        65.0750   28.7790    9.7430 O.3   167  TYR167     -0.2866
     68  N         58.8880   23.8570   13.5210 N.3   194  CYS194     -0.1221
     69  CA        57.9740   24.7470   14.2280 C.3   194  CYS194      0.1808
     70  C         57.7670   26.1090   13.5760 C.2   194  CYS194      0.2602
     71  O         58.5180   26.5240   12.6960 O.2   194  CYS194     -0.2717
     72  CB        58.4440   24.9550   15.6650 C.3   194  CYS194      0.0970
     73  SG        59.9670   25.8850   15.7590 S.3   194  CYS194     -0.0800
     74  N         56.7330   26.7980   14.0410 N.am  195  SER195     -0.1938
     75  CA        56.3700   28.1150   13.5420 C.3   195  SER195      0.2055
     76  C         57.2950   29.1940   14.1080 C.2   195  SER195      0.2643
     77  O         58.2480   28.8880   14.8280 O.2   195  SER195     -0.2714
     78  CB        54.9240   28.4100   13.9320 C.3   195  SER195      0.2130
     79  OG        54.7520   28.2620   15.3300 O.3   195  SER195     -0.2179
     80  N         57.0080   30.4530   13.7790 N.am  196  ASN196     -0.1957
     81  CA        57.8070   31.5890   14.2500 C.3   196  ASN196      0.1819
     82  C         57.8860   31.6700   15.7760 C.2   196  ASN196      0.2621
     83  O         56.8700   31.5800   16.4620 O.2   196  ASN196     -0.2715
     84  CB        57.2180   32.9050   13.7270 C.3   196  ASN196      0.1195
     85  CG        57.4330   33.1020   12.2320 C.2   196  ASN196      0.2630
     86  OD1       58.1030   34.0540   11.8090 O.2   196  ASN196     -0.2716
     87  ND2       56.8640   32.2120   11.4250 N.am  196  ASN196     -0.0877
     88  N         59.0930   31.8470   16.3040 N.am  197  ASN197     -0.1972
     89  CA        59.2900   31.9770   17.7430 C.3   197  ASN197      0.1688
     90  C         59.4510   33.4570   18.0870 C.2   197  ASN197      0.2292
     91  O         59.8930   34.2500   17.2540 O.2   197  ASN197     -0.2864
     92  CB        60.5570   31.2460   18.2060 C.3   197  ASN197      0.1181
     93  CG        60.3920   29.7410   18.2670 C.2   197  ASN197      0.2629
     94  OD1       60.9140   29.0990   19.1770 O.2   197  ASN197     -0.2716
     95  ND2       59.6870   29.1670   17.2950 N.am  197  ASN197     -0.0877
     96  N         66.6880   41.5970   14.6680 N.3   205  GLU205     -0.1231
     97  CA        66.5640   41.6400   13.2090 C.3   205  GLU205      0.1699
     98  C         65.2330   41.0420   12.7530 C.2   205  GLU205      0.2592
     99  O         64.7990   41.2530   11.6170 O.2   205  GLU205     -0.2718
    100  CB        67.7450   40.9210   12.5250 C.3   205  GLU205      0.0402
    101  CG        67.6700   39.3970   12.4800 C.3   205  GLU205      0.1161
    102  CD        68.9680   38.7470   11.9810 C.2   205  GLU205      0.3649
    103  OE1       69.7600   39.4240   11.2930 O.co2 205  GLU205     -0.2457
    104  OE2       69.1930   37.5480   12.2660 O.co2 205  GLU205     -0.2457
    105  N         64.5840   40.3000   13.6440 N.am  206  LYS206     -0.1966
    106  CA        63.2910   39.6870   13.3410 C.3   206  LYS206      0.1728
    107  C         62.1710   40.6870   13.6790 C.2   206  LYS206      0.2616
    108  O         62.3670   41.5910   14.4910 O.2   206  LYS206     -0.2715
    109  CB        63.1270   38.3860   14.1390 C.3   206  LYS206      0.0311
    110  CG        64.2160   37.3390   13.8500 C.3   206  LYS206      0.0038
    111  CD        64.2110   36.9080   12.3830 C.3   206  LYS206      0.0206
    112  CE        65.4850   36.1460   11.9940 C.3   206  LYS206      0.1093
    113  NZ        65.6340   34.8120   12.6640 N.3   206  LYS206     -0.1314
    114  N         61.0070   40.5200   13.0540 N.am  207  LEU207     -0.1977
    115  CA        59.8750   41.4330   13.2390 C.3   207  LEU207      0.1596
    116  C         59.6350   42.0160   14.6360 C.2   207  LEU207      0.2287
    117  O         59.8090   43.2140   14.8500 O.2   207  LEU207     -0.2864
    118  CB        58.5730   40.7740   12.7610 C.3   207  LEU207      0.0297
    119  CG        57.3580   41.7170   12.8040 C.3   207  LEU207      0.0022
    120  CD1       57.5580   42.8300   11.7820 C.3   207  LEU207      0.0001
    121  CD2       56.0690   40.9660   12.5140 C.3   207  LEU207      0.0001
    122  N         62.6150   43.8000   16.4940 N.3   210  LEU210     -0.1231
    123  CA        62.9910   44.9820   15.7190 C.3   210  LEU210      0.1693
    124  C         61.9700   46.0950   15.9470 C.2   210  LEU210      0.2591
    125  O         62.3330   47.2570   16.1260 O.2   210  LEU210     -0.2718
    126  CB        63.0350   44.6610   14.2260 C.3   210  LEU210      0.0284
    127  CG        63.2350   45.8610   13.2990 C.3   210  LEU210      0.0019
    128  CD1       64.6180   46.4510   13.5340 C.3   210  LEU210      0.0001
    129  CD2       63.0800   45.4400   11.8460 C.3   210  LEU210      0.0001
    130  N         60.6910   45.7330   15.9320 N.am  211  VAL211     -0.1980
    131  CA        59.6240   46.7050   16.1230 C.3   211  VAL211      0.1595
    132  C         59.6200   47.3000   17.5310 C.2   211  VAL211      0.2287
    133  O         59.4330   48.4960   17.6980 O.2   211  VAL211     -0.2864
    134  CB        58.2510   46.0740   15.7980 C.3   211  VAL211      0.0276
    135  CG1       57.1250   46.9900   16.2350 C.3   211  VAL211      0.0022
    136  CG2       58.1630   45.8140   14.3010 C.3   211  VAL211      0.0022
    137  N         59.0000   49.3510    9.9910 N.3   222  PRO222     -0.2102
    138  CA        58.8880   48.8650    8.6100 C.3   222  PRO222      0.1504
    139  C         57.9960   47.6640    8.3210 C.2   222  PRO222      0.2576
    140  O         58.2980   46.5400    8.7230 O.2   222  PRO222     -0.2718
    141  CB        60.3440   48.6090    8.2300 C.3   222  PRO222      0.0282
    142  CG        60.8970   48.0500    9.5050 C.3   222  PRO222      0.0208
    143  CD        60.3090   48.9770   10.5660 C.3   222  PRO222      0.0893
    144  N         56.9090   47.9170    7.5920 N.am  223  ILE223     -0.1966
    145  CA        55.9540   46.8810    7.2120 C.3   223  ILE223      0.1727
    146  C         56.1790   46.4790    5.7480 C.2   223  ILE223      0.2616
    147  O         56.0120   47.3000    4.8480 O.2   223  ILE223     -0.2715
    148  CB        54.4910   47.3890    7.3380 C.3   223  ILE223      0.0290
    149  CG1       54.2490   48.0000    8.7250 C.3   223  ILE223      0.0022
    150  CG2       53.5230   46.2470    7.0850 C.3   223  ILE223      0.0023
    151  CD1       54.4060   47.0280    9.8750 C.3   223  ILE223      0.0001
    152  N         56.5600   45.2250    5.5100 N.am  224  TYR224     -0.1974
    153  CA        56.7700   44.7370    4.1450 C.3   224  TYR224      0.1639
    154  C         55.4200   44.6140    3.4270 C.2   224  TYR224      0.2290
    155  O         54.5350   43.9030    3.8950 O.2   224  TYR224     -0.2864
    156  CB        57.4370   43.3560    4.1610 C.3   224  TYR224      0.0560
    157  CG        58.8760   43.3130    4.6430 C.ar  224  TYR224     -0.0198
    158  CD1       59.4850   42.0940    4.9380 C.ar  224  TYR224     -0.0009
    159  CD2       59.6320   44.4760    4.7890 C.ar  224  TYR224     -0.0009
    160  CE1       60.8070   42.0250    5.3660 C.ar  224  TYR224      0.0417
    161  CE2       60.9640   44.4230    5.2180 C.ar  224  TYR224      0.0417
    162  CZ        61.5450   43.1900    5.5050 C.ar  224  TYR224      0.1957
    163  OH        62.8550   43.1120    5.9230 O.3   224  TYR224     -0.2866
    164  N         50.2690   39.6570    5.6110 N.3   229  GLN229     -0.1245
    165  CA        50.8330   38.3100    5.6540 C.3   229  GLN229      0.1566
    166  C         50.5780   37.7240    7.0440 C.2   229  GLN229      0.2260
    167  O         50.5010   38.4590    8.0350 O.2   229  GLN229     -0.2867
    168  CB        52.3350   38.3380    5.3490 C.3   229  GLN229      0.0367
    169  CG        52.6900   38.8590    3.9520 C.3   229  GLN229      0.0905
    170  CD        52.7160   40.3840    3.8560 C.2   229  GLN229      0.2608
    171  OE1       52.3850   41.0770    4.8160 O.2   229  GLN229     -0.2717
    172  NE2       53.1030   40.9060    2.6980 N.am  229  GLN229     -0.0878
    173  N         51.4240   34.7440   10.1830 N.3   231  ARG231     -0.1245
    174  CA        52.4110   33.9020   10.8580 C.3   231  ARG231      0.1563
    175  C         51.8070   33.2540   12.1120 C.2   231  ARG231      0.2260
    176  O         50.8910   33.7990   12.7210 O.2   231  ARG231     -0.2867
    177  CB        53.6390   34.7390   11.2420 C.3   231  ARG231      0.0307
    178  CG        54.4630   35.2360   10.0500 C.3   231  ARG231      0.0489
    179  CD        55.0910   34.0590    9.3070 C.3   231  ARG231      0.2205
    180  NE        55.9760   34.4530    8.2100 N.pl3 231  ARG231     -0.0865
    181  CZ        55.5740   34.7230    6.9710 C.cat 231  ARG231      0.5346
    182  NH1       54.2850   34.6490    6.6480 N.pl3 231  ARG231      0.1354
    183  NH2       56.4650   35.0440    6.0400 N.pl3 231  ARG231      0.1354
    184  N         52.5120   32.2900   15.8110 N.3   233  TRP233     -0.1241
    185  CA        53.4550   32.6550   16.8700 C.3   233  TRP233      0.1605
    186  C         53.5290   31.7480   18.0930 C.2   233  TRP233      0.2264
    187  O         52.5210   31.4840   18.7570 O.2   233  TRP233     -0.2867
    188  CB        53.1830   34.0930   17.3160 C.3   233  TRP233      0.0550
    189  CG        53.3480   35.0870   16.1980 C.ar  233  TRP233      0.0003
    190  CD1       52.3560   35.6400   15.4370 C.ar  233  TRP233      0.0946
    191  CD2       54.5860   35.5960   15.6740 C.ar  233  TRP233      0.0152
    192  NE1       52.8990   36.4600   14.4720 N.ar  233  TRP233     -0.2442
    193  CE2       54.2640   36.4500   14.5950 C.ar  233  TRP233      0.0810
    194  CE3       55.9340   35.4100   16.0110 C.ar  233  TRP233      0.0012
    195  CZ2       55.2430   37.1180   13.8480 C.ar  233  TRP233      0.0191
    196  CZ3       56.9100   36.0750   15.2670 C.ar  233  TRP233      0.0001
    197  CH2       56.5550   36.9190   14.1970 C.ar  233  TRP233      0.0015
    198  N         50.7290   40.3580   10.3730 N.3   266  ASN266     -0.1240
    199  CA        51.8420   41.1980   10.7990 C.3   266  ASN266      0.1653
    200  C         51.4020   42.5770   11.3160 C.2   266  ASN266      0.2266
    201  O         51.7660   42.9740   12.4270 O.2   266  ASN266     -0.2867
    202  CB        52.8470   41.3670    9.6500 C.3   266  ASN266      0.1155
    203  CG        53.5190   40.0450    9.2430 C.2   266  ASN266      0.2627
    204  OD1       53.4710   39.0620    9.9890 O.2   266  ASN266     -0.2716
    205  ND2       54.1310   40.0160    8.0590 N.am  266  ASN266     -0.0877
    206  N         59.1460   42.0590    0.5460 N.3   297  ARG297     -0.1245
    207  CA        60.2620   41.1190    0.4690 C.3   297  ARG297      0.1563
    208  C         60.0790   40.2510   -0.7710 C.2   297  ARG297      0.2260
    209  O         58.9870   39.7390   -1.0170 O.2   297  ARG297     -0.2867
    210  CB        60.2850   40.2380    1.7250 C.3   297  ARG297      0.0307
    211  CG        61.1700   38.9960    1.6250 C.3   297  ARG297      0.0489
    212  CD        60.9250   38.0430    2.7940 C.3   297  ARG297      0.2205
    213  NE        61.4970   38.5300    4.0490 N.pl3 297  ARG297     -0.0865
    214  CZ        61.2670   37.9800    5.2390 C.cat 297  ARG297      0.5346
    215  NH1       60.4700   36.9190    5.3380 N.pl3 297  ARG297      0.1354
    216  NH2       61.8400   38.4840    6.3300 N.pl3 297  ARG297      0.1354
    217  N         58.1590   36.6930   -0.9210 N.3   300  HIS300     -0.1241
    218  CA        57.5020   36.6300    0.3930 C.3   300  HIS300      0.1621
    219  C         56.3810   35.5860    0.5020 C.2   300  HIS300      0.2264
    220  O         55.4580   35.5840   -0.3030 O.2   300  HIS300     -0.2867
    221  CB        56.9270   38.0240    0.7210 C.3   300  HIS300      0.0745
    222  CG        56.6180   38.2480    2.1720 C.ar  300  HIS300      0.0817
    223  ND1       56.1630   39.4580    2.6520 N.ar  300  HIS300     -0.2268
    224  CD2       56.7370   37.4380    3.2520 C.ar  300  HIS300      0.1154
    225  CE1       56.0190   39.3860    3.9640 C.ar  300  HIS300      0.1986
    226  NE2       56.3610   38.1720    4.3540 N.ar  300  HIS300     -0.2212
    227  N         51.7110   31.1270    6.9490 N.3   304  TYR304     -0.1241
    228  CA        52.2080   29.9090    7.5900 C.3   304  TYR304      0.1605
    229  C         51.2370   29.5860    8.7280 C.2   304  TYR304      0.2264
    230  O         50.7540   30.4890    9.4090 O.2   304  TYR304     -0.2867
    231  CB        53.5940   30.0970    8.2240 C.3   304  TYR304      0.0534
    232  CG        54.7490   30.4240    7.2980 C.ar  304  TYR304     -0.0201
    233  CD1       54.8170   29.9110    5.9970 C.ar  304  TYR304     -0.0009
    234  CD2       55.8200   31.1900    7.7590 C.ar  304  TYR304     -0.0009
    235  CE1       55.9340   30.1560    5.1820 C.ar  304  TYR304      0.0417
    236  CE2       56.9330   31.4370    6.9610 C.ar  304  TYR304      0.0417
    237  CZ        56.9870   30.9190    5.6740 C.ar  304  TYR304      0.1957
    238  OH        58.0980   31.1680    4.8980 O.3   304  TYR304     -0.2866
    239  N         67.3000   48.2190    5.0330 N.3   357  TYR357     -0.1241
    240  CA        66.2290   49.2130    5.1100 C.3   357  TYR357      0.1605
    241  C         66.3690   50.5720    4.4230 C.2   357  TYR357      0.2264
    242  O         65.3670   51.1400    3.9920 O.2   357  TYR357     -0.2867
    243  CB        65.8450   49.4420    6.5760 C.3   357  TYR357      0.0534
    244  CG        65.3280   48.1920    7.2550 C.ar  357  TYR357     -0.0201
    245  CD1       66.1700   47.3930    8.0320 C.ar  357  TYR357     -0.0009
    246  CD2       64.0100   47.7790    7.0760 C.ar  357  TYR357     -0.0009
    247  CE1       65.7080   46.2050    8.6130 C.ar  357  TYR357      0.0417
    248  CE2       63.5400   46.5960    7.6490 C.ar  357  TYR357      0.0417
    249  CZ        64.3940   45.8160    8.4130 C.ar  357  TYR357      0.1957
    250  OH        63.9240   44.6450    8.9660 O.3   357  TYR357     -0.2866
@<TRIPOS>BOND
     1   209   208    2
     2   217   218    1
     3   208   207    1
     4   220   219    2
     5   218   219    1
     6   218   221    1
     7   207   206    1
     8   207   210    1
     9   221   222    1
    10   211   210    1
    11   211   212    1
    12   222   223   ar
    13   222   224   ar
    14    56    57    1
    15   223   225   ar
    16   172   170   am
    17   212   213    1
    18    27    26    2
    19   224   226   ar
    20   154   155    2
    21   154   153    1
    22    20    19    2
    23    22    21    1
    24    57    58    1
    25    57    60    1
    26    50    49    2
    27   170   169    1
    28   170   171    2
    29    58    59    2
    30   169   168    1
    31   225   226   ar
    32   242   241    2
    33   213   214    2
    34    30    29   ar
    35   153   156    1
    36   153   152    1
    37   156   157    1
    38    26    25    1
    39   241   240    1
    40    25    24    1
    41    25    28    1
    42    19    24   am
    43    19    18    1
    44   157   159   ar
    45   157   158   ar
    46    60    61    1
    47   159   161   ar
    48   147   146    2
    49   238   237    1
    50   158   160   ar
    51    49    48    1
    52   239   240    1
    53   240   243    1
    54    21    18    1
    55    21    23    1
    56   235   237   ar
    57   235   233   ar
    58   161   162   ar
    59    29    28    1
    60    29    31   ar
    61   214   215    1
    62   214   216    1
    63    18    17    1
    64   168   165    1
    65   160   162   ar
    66   162   163    1
    67   152   146   am
    68   164   165    1
    69   165   166    1
    70   237   236   ar
    71   146   145    1
    72    54    53   ar
    73   233   232   ar
    74   183   181    1
    75    61    63   ar
    76    61    62   ar
    77    48    51    1
    78    48    47    1
    79    51    52    1
    80    10     9    2
    81    63    65   ar
    82   243   244    1
    83   182   181    1
    84    17     9   am
    85    42    41    2
    86    53    52    1
    87    53    55   ar
    88    62    64   ar
    89   227   228    1
    90   236   234   ar
    91   181   180    2
    92   166   167    2
    93   246   244   ar
    94   246   248   ar
    95   150   148    1
    96     9     8    1
    97   145   148    1
    98   145   144    1
    99   244   245   ar
   100   232   234   ar
   101   232   231    1
   102   148   149    1
   103    47    41   am
   104   228   231    1
   105   228   229    1
   106   144   139   am
   107   248   249   ar
   108    41    40    1
   109    65    66   ar
   110   245   247   ar
   111   205   203   am
   112    64    66   ar
   113   180   179    1
   114   141   138    1
   115   141   142    1
   116   139   138    1
   117   139   140    2
   118   249   247   ar
   119   249   250    1
   120    66    67    1
   121    38    36    1
   122   138   137    1
   123     8    11    1
   124     8     7    1
   125   149   151    1
   126   229   230    2
   127    14    16   ar
   128    14    12   ar
   129    16    15   ar
   130    35    34    2
   131    12    13   ar
   132    12    11    1
   133    15    13   ar
   134    40    43    1
   135    40    39    1
   136     7     3   am
   137   203   202    1
   138   203   204    2
   139   179   178    1
   140   142   143    1
   141   202   199    1
   142    45    44   ar
   143    37    36    1
   144    34    39   am
   145    34    33    1
   146     3     4    2
   147     3     2    1
   148    43    44    1
   149    44    46   ar
   150    36    33    1
   151   137   143    1
   152   178   177    1
   153   173   174    1
   154     1     2    1
   155     2     5    1
   156   198   199    1
   157    33    32    1
   158   199   200    1
   159   174   177    1
   160   174   175    1
   161   103   102   ar
   162   200   201    2
   163    87    85   am
   164    99    98    2
   165     5     6    1
   166   120   119    1
   167    86    85    2
   168   129   127    1
   169   102   104   ar
   170   102   101    1
   171   112   111    1
   172   112   113    1
   173   175   176    2
   174    85    84    1
   175   111   110    1
   176   101   100    1
   177   121   119    1
   178   100    97    1
   179    71    70    2
   180    98    97    1
   181    98   105   am
   182   118   119    1
   183   118   115    1
   184   114   115    1
   185   114   107   am
   186    97    96    1
   187   115   116    1
   188   127   128    1
   189   127   126    1
   190   106   105    1
   191   106   107    1
   192   106   109    1
   193    68    69    1
   194    75    78    1
   195    75    74    1
   196    75    76    1
   197    70    74   am
   198    70    69    1
   199   107   108    2
   200    84    81    1
   201    80    76   am
   202    80    81    1
   203   195   197   ar
   204   195   193   ar
   205   110   109    1
   206    78    79    1
   207    76    77    2
   208   197   196   ar
   209   126   123    1
   210    69    72    1
   211    81    82    1
   212   136   134    1
   213   192   193   ar
   214   192   190   ar
   215   193   191   ar
   216   116   117    2
   217   196   194   ar
   218   190   189   ar
   219    72    73    1
   220   191   194   ar
   221   191   189   ar
   222   123   124    1
   223   123   122    1
   224    82    88   am
   225    82    83    2
   226   134   131    1
   227   134   135    1
   228   184   185    1
   229   130   124   am
   230   130   131    1
   231   124   125    2
   232   131   132    1
   233   189   188    1
   234    88    89    1
   235   185   188    1
   236   185   186    1
   237    91    90    2
   238    95    93   am
   239   132   133    2
   240    89    90    1
   241    89    92    1
   242   186   187    2
   243    92    93    1
   244    93    94    2
