@<TRIPOS>MOLECULE
tmp/1kewB00.pdb
 208 202 0 0 0
SMALL
GASTEIGER

@<TRIPOS>ATOM
      1  N         46.6140   60.2740    9.7440 N.3    84  SER84      -0.1202
      2  CA        45.3600   59.5460    9.9010 C.3    84  SER84       0.2020
      3  C         44.0720   60.0960    9.3250 C.2    84  SER84       0.2619
      4  O         43.0290   59.4640    9.4850 O.2    84  SER84      -0.2717
      5  CB        45.1090   59.3260   11.3900 C.3    84  SER84       0.2103
      6  OG        44.6810   60.5460   11.9900 O.3    84  SER84      -0.2182
      7  N         44.1150   61.2430    8.6590 N.am   85  HIS85      -0.1961
      8  CA        42.8690   61.8300    8.1550 C.3    85  HIS85       0.1787
      9  C         42.5890   61.6080    6.6810 C.2    85  HIS85       0.2620
     10  O         43.2970   62.1220    5.8250 O.2    85  HIS85      -0.2715
     11  CB        42.8490   63.3340    8.4510 C.3    85  HIS85       0.0785
     12  CG        41.4870   63.9500    8.3470 C.ar   85  HIS85       0.0821
     13  ND1       40.3300   63.2060    8.4370 N.ar   85  HIS85      -0.2267
     14  CD2       41.0950   65.2420    8.2330 C.ar   85  HIS85       0.1154
     15  CE1       39.2850   64.0130    8.3870 C.ar   85  HIS85       0.1986
     16  NE2       39.7220   65.2540    8.2640 N.ar   85  HIS85      -0.2212
     17  N         41.5340   60.8530    6.3930 N.am   86  VAL86      -0.1963
     18  CA        41.1520   60.5670    5.0160 C.3    86  VAL86       0.1727
     19  C         41.0290   61.8430    4.1870 C.2    86  VAL86       0.2616
     20  O         41.5380   61.9150    3.0710 O.2    86  VAL86      -0.2715
     21  CB        39.8150   59.8010    4.9590 C.3    86  VAL86       0.0290
     22  CG1       39.3260   59.7000    3.5130 C.3    86  VAL86       0.0023
     23  CG2       40.0000   58.3990    5.5520 C.3    86  VAL86       0.0023
     24  N         40.3640   62.8580    4.7310 N.am   87  ASP87      -0.1971
     25  CA        40.2070   64.0940    3.9720 C.3    87  ASP87       0.1709
     26  C         41.5280   64.7660    3.6210 C.2    87  ASP87       0.2293
     27  O         41.6680   65.3330    2.5340 O.2    87  ASP87      -0.2864
     28  CB        39.2840   65.0640    4.7150 C.3    87  ASP87       0.1436
     29  CG        37.8540   64.5630    4.7590 C.2    87  ASP87       0.3671
     30  OD1       37.3820   64.0550    3.7160 O.co2  87  ASP87      -0.2456
     31  OD2       37.2050   64.6750    5.8210 O.co2  87  ASP87      -0.2456
     32  N         39.7290   50.3130    7.7770 N.3   135  GLU135     -0.1245
     33  CA        39.5590   50.8590    6.4350 C.3   135  GLU135      0.1567
     34  C         40.3210   50.1090    5.3400 C.2   135  GLU135      0.2260
     35  O         40.0000   50.2400    4.1570 O.2   135  GLU135     -0.2867
     36  CB        39.9070   52.3550    6.4520 C.3   135  GLU135      0.0388
     37  CG        39.0050   53.1070    7.4380 C.3   135  GLU135      0.1160
     38  CD        39.1660   54.6160    7.4230 C.2   135  GLU135      0.3649
     39  OE1       39.4420   55.1920    6.3540 O.co2 135  GLU135     -0.2457
     40  OE2       38.9860   55.2270    8.4980 O.co2 135  GLU135     -0.2457
     41  N         44.6410   57.4010    2.1640 N.3   167  TYR167     -0.1241
     42  CA        44.9210   57.0380    3.5540 C.3   167  TYR167      0.1605
     43  C         44.8100   55.5270    3.7700 C.2   167  TYR167      0.2264
     44  O         45.7550   54.8820    4.2370 O.2   167  TYR167     -0.2867
     45  CB        43.9390   57.7220    4.5180 C.3   167  TYR167      0.0534
     46  CG        43.9220   57.0840    5.8970 C.ar  167  TYR167     -0.0201
     47  CD1       45.0520   57.1090    6.7110 C.ar  167  TYR167     -0.0009
     48  CD2       42.7850   56.4260    6.3720 C.ar  167  TYR167     -0.0009
     49  CE1       45.0560   56.4920    7.9680 C.ar  167  TYR167      0.0417
     50  CE2       42.7780   55.8020    7.6280 C.ar  167  TYR167      0.0417
     51  CZ        43.9180   55.8440    8.4180 C.ar  167  TYR167      0.1957
     52  OH        43.9120   55.2590    9.6700 O.3   167  TYR167     -0.2866
     53  N         36.4880   52.8520   14.0170 N.3   196  ASN196     -0.1240
     54  CA        36.6750   54.2600   14.3530 C.3   196  ASN196      0.1653
     55  C         36.7690   54.4410   15.8600 C.2   196  ASN196      0.2266
     56  O         36.0170   53.8180   16.6070 O.2   196  ASN196     -0.2867
     57  CB        35.4940   55.0970   13.8500 C.3   196  ASN196      0.1155
     58  CG        35.5550   55.3740   12.3630 C.2   196  ASN196      0.2627
     59  OD1       35.6250   56.5310   11.9370 O.2   196  ASN196     -0.2716
     60  ND2       35.5210   54.3230   11.5650 N.am  196  ASN196     -0.0877
     61  N         39.4920   67.4070   13.8620 N.3   205  GLU205     -0.1231
     62  CA        39.2870   67.3390   12.4160 C.3   205  GLU205      0.1699
     63  C         38.4210   66.1240   12.0960 C.2   205  GLU205      0.2592
     64  O         37.8760   66.0130   10.9990 O.2   205  GLU205     -0.2718
     65  CB        40.6210   67.2380   11.6660 C.3   205  GLU205      0.0402
     66  CG        41.3460   65.9120   11.8590 C.3   205  GLU205      0.1161
     67  CD        42.7430   65.9270   11.2690 C.2   205  GLU205      0.3649
     68  OE1       43.0890   66.9120   10.5870 O.co2 205  GLU205     -0.2457
     69  OE2       43.4930   64.9490   11.4860 O.co2 205  GLU205     -0.2457
     70  N         38.2980   65.2110   13.0570 N.am  206  LYS206     -0.1966
     71  CA        37.4800   64.0180   12.8620 C.3   206  LYS206      0.1728
     72  C         36.0300   64.3620   13.2150 C.2   206  LYS206      0.2616
     73  O         35.7780   65.3090   13.9670 O.2   206  LYS206     -0.2715
     74  CB        38.0120   62.8620   13.7180 C.3   206  LYS206      0.0311
     75  CG        39.4680   62.4840   13.3860 C.3   206  LYS206      0.0038
     76  CD        39.6280   62.1070   11.9070 C.3   206  LYS206      0.0206
     77  CE        41.0990   61.8820   11.5320 C.3   206  LYS206      0.1093
     78  NZ        41.6790   60.6930   12.2210 N.3   206  LYS206     -0.1314
     79  N         35.0860   63.5940   12.6780 N.am  207  LEU207     -0.1977
     80  CA        33.6590   63.8650   12.8730 C.3   207  LEU207      0.1596
     81  C         33.1830   64.3050   14.2530 C.2   207  LEU207      0.2287
     82  O         32.6570   65.4140   14.4140 O.2   207  LEU207     -0.2864
     83  CB        32.8150   62.6610   12.4360 C.3   207  LEU207      0.0297
     84  CG        31.2940   62.8400   12.6080 C.3   207  LEU207      0.0022
     85  CD1       30.7740   63.8400   11.5870 C.3   207  LEU207      0.0001
     86  CD2       30.5790   61.5040   12.4390 C.3   207  LEU207      0.0001
     87  N         35.0120   67.5010   15.8810 N.3   210  LEU210     -0.1245
     88  CA        34.7340   68.6570   15.0360 C.3   210  LEU210      0.1561
     89  C         33.3050   69.1370   15.2840 C.2   210  LEU210      0.2260
     90  O         33.0490   70.3400   15.4240 O.2   210  LEU210     -0.2867
     91  CB        34.8940   68.2960   13.5560 C.3   210  LEU210      0.0270
     92  CG        34.4660   69.3890   12.5650 C.3   210  LEU210      0.0019
     93  CD1       35.3940   70.5850   12.6890 C.3   210  LEU210      0.0001
     94  CD2       34.5050   68.8490   11.1470 C.3   210  LEU210      0.0001
     95  N         29.0170   70.1660    9.5630 N.3   222  PRO222     -0.2102
     96  CA        29.0680   69.6310    8.2020 C.3   222  PRO222      0.1504
     97  C         28.8550   68.1410    7.9950 C.2   222  PRO222      0.2576
     98  O         29.6910   67.3230    8.3770 O.2   222  PRO222     -0.2718
     99  CB        30.4400   70.0920    7.7230 C.3   222  PRO222      0.0282
    100  CG        31.2670   69.9170    8.9610 C.3   222  PRO222      0.0208
    101  CD        30.3730   70.4910   10.0500 C.3   222  PRO222      0.0893
    102  N         27.7380   67.8050    7.3560 N.am  223  ILE223     -0.1966
    103  CA        27.3970   66.4190    7.0650 C.3   223  ILE223      0.1727
    104  C         27.6910   66.1100    5.5960 C.2   223  ILE223      0.2616
    105  O         27.0930   66.7120    4.7000 O.2   223  ILE223     -0.2715
    106  CB        25.8920   66.1480    7.3090 C.3   223  ILE223      0.0290
    107  CG1       25.5030   66.5540    8.7300 C.3   223  ILE223      0.0022
    108  CG2       25.5760   64.6760    7.0350 C.3   223  ILE223      0.0023
    109  CD1       26.1440   65.7380    9.8140 C.3   223  ILE223      0.0001
    110  N         28.6110   65.1810    5.3470 N.am  224  TYR224     -0.1974
    111  CA        28.9490   64.7960    3.9740 C.3   224  TYR224      0.1639
    112  C         27.7860   63.9890    3.3960 C.2   224  TYR224      0.2290
    113  O         27.3530   63.0070    3.9980 O.2   224  TYR224     -0.2864
    114  CB        30.2050   63.9160    3.9490 C.3   224  TYR224      0.0560
    115  CG        31.4990   64.5790    4.3850 C.ar  224  TYR224     -0.0198
    116  CD1       32.6220   63.8030    4.6850 C.ar  224  TYR224     -0.0009
    117  CD2       31.6130   65.9670    4.4830 C.ar  224  TYR224     -0.0009
    118  CE1       33.8250   64.3870    5.0700 C.ar  224  TYR224      0.0417
    119  CE2       32.8200   66.5670    4.8690 C.ar  224  TYR224      0.0417
    120  CZ        33.9190   65.7640    5.1600 C.ar  224  TYR224      0.1957
    121  OH        35.1070   66.3350    5.5450 O.3   224  TYR224     -0.2866
    122  N         25.7880   57.3590    6.0690 N.3   229  GLN229     -0.1245
    123  CA        26.9440   56.4740    6.0980 C.3   229  GLN229      0.1566
    124  C         27.1220   55.9270    7.5130 C.2   229  GLN229      0.2260
    125  O         26.7980   56.5970    8.4980 O.2   229  GLN229     -0.2867
    126  CB        28.2050   57.2210    5.6480 C.3   229  GLN229      0.0367
    127  CG        28.1590   57.7390    4.2050 C.3   229  GLN229      0.0905
    128  CD        27.5300   59.1240    4.0660 C.2   229  GLN229      0.2608
    129  OE1       26.9080   59.6300    5.0060 O.2   229  GLN229     -0.2717
    130  NE2       27.6870   59.7390    2.9010 N.am  229  GLN229     -0.0878
    131  N         29.4930   54.0150   10.6330 N.3   231  ARG231     -0.1245
    132  CA        30.7970   53.8110   11.2510 C.3   231  ARG231      0.1563
    133  C         30.5960   53.0280   12.5450 C.2   231  ARG231      0.2260
    134  O         29.5320   53.1010   13.1650 O.2   231  ARG231     -0.2867
    135  CB        31.4780   55.1560   11.5320 C.3   231  ARG231      0.0307
    136  CG        31.9010   55.9180   10.2680 C.3   231  ARG231      0.0489
    137  CD        32.9880   55.1480    9.5210 C.3   231  ARG231      0.2205
    138  NE        33.5050   55.8260    8.3290 N.pl3 231  ARG231     -0.0865
    139  CZ        32.9500   55.7840    7.1200 C.cat 231  ARG231      0.5346
    140  NH1       31.8320   55.0990    6.9110 N.pl3 231  ARG231      0.1354
    141  NH2       33.5440   56.3980    6.0970 N.pl3 231  ARG231      0.1354
    142  N         31.7870   52.6940   16.2170 N.3   233  TRP233     -0.1241
    143  CA        32.4750   53.4820   17.2370 C.3   233  TRP233      0.1605
    144  C         32.9680   52.8030   18.5070 C.2   233  TRP233      0.2264
    145  O         32.1850   52.2480   19.2770 O.2   233  TRP233     -0.2867
    146  CB        31.5960   54.6790   17.6220 C.3   233  TRP233      0.0550
    147  CG        31.2430   55.5260   16.4380 C.ar  233  TRP233      0.0003
    148  CD1       30.0710   55.5160   15.7410 C.ar  233  TRP233      0.0946
    149  CD2       32.0930   56.4710   15.7810 C.ar  233  TRP233      0.0152
    150  NE1       30.1360   56.3970   14.6900 N.ar  233  TRP233     -0.2442
    151  CE2       31.3680   56.9970   14.6910 C.ar  233  TRP233      0.0810
    152  CE3       33.4020   56.9240   16.0070 C.ar  233  TRP233      0.0012
    153  CZ2       31.9050   57.9560   13.8250 C.ar  233  TRP233      0.0191
    154  CZ3       33.9370   57.8750   15.1460 C.ar  233  TRP233      0.0001
    155  CH2       33.1860   58.3810   14.0680 C.ar  233  TRP233      0.0015
    156  N         26.1110   58.3930   10.6670 N.3   266  ASN266     -0.1240
    157  CA        26.7030   59.6900   10.9890 C.3   266  ASN266      0.1653
    158  C         25.6880   60.7090   11.5060 C.2   266  ASN266      0.2266
    159  O         25.9110   61.3510   12.5350 O.2   266  ASN266     -0.2867
    160  CB        27.4020   60.2790    9.7590 C.3   266  ASN266      0.1155
    161  CG        28.6440   59.4950    9.3470 C.2   266  ASN266      0.2627
    162  OD1       29.1820   58.7150   10.1370 O.2   266  ASN266     -0.2716
    163  ND2       29.0910   59.6880    8.1180 N.am  266  ASN266     -0.0877
    164  N         32.1960   63.3670    0.4630 N.3   297  ARG297     -0.1245
    165  CA        33.6210   63.0820    0.3550 C.3   297  ARG297      0.1563
    166  C         33.8200   62.2000   -0.8820 C.2   297  ARG297      0.2260
    167  O         33.0780   61.2450   -1.0920 O.2   297  ARG297     -0.2867
    168  CB        34.0770   62.3330    1.6070 C.3   297  ARG297      0.0307
    169  CG        35.4490   61.6750    1.4860 C.3   297  ARG297      0.0489
    170  CD        35.7020   60.7900    2.6860 C.3   297  ARG297      0.2205
    171  NE        36.0300   61.5720    3.8750 N.pl3 297  ARG297     -0.0865
    172  CZ        36.1380   61.0610    5.0960 C.cat 297  ARG297      0.5346
    173  NH1       35.9290   59.7650    5.2960 N.pl3 297  ARG297      0.1354
    174  NH2       36.4920   61.8380    6.1100 N.pl3 297  ARG297      0.1354
    175  N         33.8400   58.1850   -0.7880 N.3   300  HIS300     -0.1241
    176  CA        33.3420   57.8890    0.5540 C.3   300  HIS300      0.1621
    177  C         32.8890   56.4430    0.7850 C.2   300  HIS300      0.2264
    178  O         32.0360   55.9360    0.0590 O.2   300  HIS300     -0.2867
    179  CB        32.1760   58.8370    0.8430 C.3   300  HIS300      0.0745
    180  CG        31.8570   58.9960    2.2950 C.ar  300  HIS300      0.0817
    181  ND1       30.9080   59.8890    2.7460 N.ar  300  HIS300     -0.2268
    182  CD2       32.3640   58.3950    3.3980 C.ar  300  HIS300      0.1154
    183  CE1       30.8460   59.8310    4.0640 C.ar  300  HIS300      0.1986
    184  NE2       31.7190   58.9330    4.4850 N.ar  300  HIS300     -0.2212
    185  N         31.3110   50.7660    7.6130 N.3   304  TYR304     -0.1241
    186  CA        32.3740   50.0000    8.2630 C.3   304  TYR304      0.1605
    187  C         31.7310   49.3040    9.4570 C.2   304  TYR304      0.2264
    188  O         30.9410   49.9110   10.1820 O.2   304  TYR304     -0.2867
    189  CB        33.4960   50.8840    8.8200 C.3   304  TYR304      0.0534
    190  CG        34.3220   51.6570    7.8170 C.ar  304  TYR304     -0.0201
    191  CD1       34.5280   51.1900    6.5200 C.ar  304  TYR304     -0.0009
    192  CD2       34.9380   52.8520    8.1920 C.ar  304  TYR304     -0.0009
    193  CE1       35.3360   51.9040    5.6170 C.ar  304  TYR304      0.0417
    194  CE2       35.7340   53.5620    7.3110 C.ar  304  TYR304      0.0417
    195  CZ        35.9310   53.0880    6.0290 C.ar  304  TYR304      0.1957
    196  OH        36.7260   53.8190    5.1750 O.3   304  TYR304     -0.2866
    197  N         36.4390   72.8420    4.0560 N.3   357  TYR357     -0.1241
    198  CA        35.0300   73.2020    4.1870 C.3   357  TYR357      0.1605
    199  C         34.4980   74.4340    3.4620 C.2   357  TYR357      0.2264
    200  O         33.3610   74.4170    2.9880 O.2   357  TYR357     -0.2867
    201  CB        34.6600   73.3070    5.6700 C.3   357  TYR357      0.0534
    202  CG        34.8480   72.0120    6.4200 C.ar  357  TYR357     -0.0201
    203  CD1       36.0090   71.7700    7.1520 C.ar  357  TYR357     -0.0009
    204  CD2       33.8930   70.9980    6.3420 C.ar  357  TYR357     -0.0009
    205  CE1       36.2220   70.5500    7.7830 C.ar  357  TYR357      0.0417
    206  CE2       34.0970   69.7680    6.9700 C.ar  357  TYR357      0.0417
    207  CZ        35.2640   69.5540    7.6850 C.ar  357  TYR357      0.1957
    208  OH        35.4870   68.3410    8.2920 O.3   357  TYR357     -0.2866
@<TRIPOS>BOND
     1   167   166    2
     2   166   165    1
     3   175   176    1
     4   178   177    2
     5   165   164    1
     6   165   168    1
     7   176   177    1
     8   176   179    1
     9   179   180    1
    10   169   168    1
    11   169   170    1
    12    41    42    1
    13   180   181   ar
    14   180   182   ar
    15    27    26    2
    16   170   171    1
    17   181   183   ar
    18   130   128   am
    19   200   199    2
    20    20    19    2
    21   112   111    1
    22   112   113    2
    23   182   184   ar
    24   199   198    1
    25    22    21    1
    26    42    43    1
    27    42    45    1
    28    26    25    1
    29    30    29   ar
    30    43    44    2
    31   171   172    2
    32   114   111    1
    33   114   115    1
    34    25    28    1
    35    25    24    1
    36   111   110    1
    37   197   198    1
    38   183   184   ar
    39   128   127    1
    40   128   129    2
    41    35    34    2
    42   198   201    1
    43    19    24   am
    44    19    18    1
    45   127   126    1
    46   115   117   ar
    47   115   116   ar
    48   117   119   ar
    49    45    46    1
    50   116   118   ar
    51   105   104    2
    52    28    29    1
    53    29    31   ar
    54   119   120   ar
    55    21    18    1
    56    21    23    1
    57    18    17    1
    58   118   120   ar
    59   172   173    1
    60   172   174    1
    61   120   121    1
    62   196   195    1
    63    34    33    1
    64   110   104   am
    65   104   103    1
    66   193   195   ar
    67   193   191   ar
    68   126   123    1
    69   201   202    1
    70    10     9    2
    71    46    48   ar
    72    46    47   ar
    73   195   194   ar
    74   122   123    1
    75   141   139    1
    76   123   124    1
    77   204   202   ar
    78   204   206   ar
    79    39    38   ar
    80    48    50   ar
    81    17     9   am
    82   202   203   ar
    83    33    36    1
    84    33    32    1
    85    36    37    1
    86   191   190   ar
    87     9     8    1
    88    47    49   ar
    89   140   139    1
    90   206   207   ar
    91   108   106    1
    92   103   106    1
    93   103   102    1
    94   139   138    2
    95   203   205   ar
    96   106   107    1
    97   194   192   ar
    98   102    97   am
    99    38    37    1
   100    38    40   ar
   101   124   125    2
   102   185   186    1
   103    50    51   ar
   104   207   205   ar
   105   207   208    1
   106    99    96    1
   107    99   100    1
   108   190   192   ar
   109   190   189    1
   110    49    51   ar
   111    97    96    1
   112    97    98    2
   113   163   161   am
   114     8    11    1
   115     8     7    1
   116    96    95    1
   117    14    16   ar
   118    14    12   ar
   119   186   189    1
   120   186   187    1
   121    16    15   ar
   122   138   137    1
   123    12    13   ar
   124    12    11    1
   125    15    13   ar
   126    51    52    1
   127     7     3   am
   128   107   109    1
   129   100   101    1
   130     3     4    2
   131     3     2    1
   132   161   160    1
   133   161   162    2
   134   187   188    2
   135   137   136    1
   136    95   101    1
   137     1     2    1
   138   160   157    1
   139     2     5    1
   140   136   135    1
   141    68    67   ar
   142   131   132    1
   143   156   157    1
   144   157   158    1
   145    64    63    2
   146    94    92    1
   147   132   135    1
   148   132   133    1
   149    67    69   ar
   150    67    66    1
   151     5     6    1
   152   158   159    2
   153    77    76    1
   154    77    78    1
   155    60    58   am
   156    85    84    1
   157    65    66    1
   158    65    62    1
   159    76    75    1
   160    59    58    2
   161    63    62    1
   162    63    70   am
   163    58    57    1
   164    62    61    1
   165    83    84    1
   166    83    80    1
   167    86    84    1
   168   133   134    2
   169    92    93    1
   170    92    91    1
   171    79    80    1
   172    79    72   am
   173    71    70    1
   174    71    72    1
   175    71    74    1
   176    80    81    1
   177    72    73    2
   178    75    74    1
   179    91    88    1
   180   153   155   ar
   181   153   151   ar
   182    57    54    1
   183    53    54    1
   184   155   154   ar
   185    81    82    2
   186    54    55    1
   187   150   151   ar
   188   150   148   ar
   189   151   149   ar
   190    88    89    1
   191    88    87    1
   192   154   152   ar
   193    89    90    2
   194   148   147   ar
   195   149   152   ar
   196   149   147   ar
   197    55    56    2
   198   142   143    1
   199   147   146    1
   200   143   146    1
   201   143   144    1
   202   144   145    2
