@<TRIPOS>MOLECULE
tmp/1kf6A02.pdb
 151 142 0 0 0
SMALL
GASTEIGER

@<TRIPOS>ATOM
      1  N         19.8830   38.3990    1.9140 N.3    72  ALA72      -0.1231
      2  CA        19.3850   39.7880    1.9010 C.3    72  ALA72       0.1694
      3  C         18.3740   39.9700    0.7540 C.2    72  ALA72       0.2592
      4  O         17.3820   40.6570    0.8960 O.2    72  ALA72      -0.2718
      5  CB        20.4910   40.7670    1.7480 C.3    72  ALA72       0.0304
      6  N         18.6180   39.3170   -0.3690 N.am   73  GLY73      -0.1957
      7  CA        17.7180   39.4090   -1.4800 C.3    73  GLY73       0.1869
      8  C         16.3700   38.8000   -1.1530 C.2    73  GLY73       0.2309
      9  O         15.3640   39.1360   -1.7660 O.2    73  GLY73      -0.2863
     10  N         14.9420   39.0790    1.7180 N.3    75  ASP75      -0.1239
     11  CA        14.4040   39.8280    2.8340 C.3    75  ASP75       0.1674
     12  C         14.2660   38.9650    4.0690 C.2    75  ASP75       0.2266
     13  O         13.2550   39.0350    4.7630 O.2    75  ASP75      -0.2867
     14  CB        13.0330   40.4540    2.4850 C.3    75  ASP75       0.1410
     15  CG        13.0020   41.9910    2.6020 C.2    75  ASP75       0.3668
     16  OD1       13.8830   42.5410    3.2900 O.co2  75  ASP75      -0.2456
     17  OD2       12.1100   42.6610    2.0210 O.co2  75  ASP75      -0.2456
     18  N         21.1360   39.6580  -10.8670 N.3   118  GLY118     -0.1210
     19  CA        20.5050   39.7970   -9.5660 C.3   118  GLY118      0.1956
     20  C         21.1180   40.8580   -8.6830 C.2   118  GLY118      0.2612
     21  O         20.9780   40.7990   -7.4820 O.2   118  GLY118     -0.2717
     22  N         21.8090   41.8340   -9.2480 N.am  119  GLY119     -0.1956
     23  CA        22.4380   42.8670   -8.4570 C.3   119  GLY119      0.1869
     24  C         23.6440   42.4820   -7.6170 C.2   119  GLY119      0.2309
     25  O         24.0790   43.3030   -6.8120 O.2   119  GLY119     -0.2863
     26  N         17.6710   40.9030  -18.4280 N.3   246  GLU246     -0.1245
     27  CA        18.2730   42.0040  -17.6800 C.3   246  GLU246      0.1567
     28  C         19.5760   42.3560  -18.4010 C.2   246  GLU246      0.2260
     29  O         20.0880   43.4960  -18.3150 O.2   246  GLU246     -0.2867
     30  CB        18.6020   41.5820  -16.2410 C.3   246  GLU246      0.0388
     31  CG        19.3590   42.6120  -15.4430 C.3   246  GLU246      0.1160
     32  CD        19.5200   42.2880  -13.9660 C.2   246  GLU246      0.3649
     33  OE1       19.8790   41.1500  -13.6020 O.co2 246  GLU246     -0.2457
     34  OE2       19.2960   43.2010  -13.1340 O.co2 246  GLU246     -0.2457
     35  N         19.0370   49.1760  -11.0620 N.3   286  GLY286     -0.1210
     36  CA        18.6270   49.3750   -9.6800 C.3   286  GLY286      0.1940
     37  C         17.9170   48.1370   -9.1660 C.2   286  GLY286      0.2454
     38  O         17.7440   47.1690   -9.9110 O.2   286  GLY286     -0.2732
     39  N         17.5110   48.1320   -7.8880 N.am  287  PRO287     -0.2717
     40  CA        16.7910   47.0050   -7.2690 C.3   287  PRO287      0.1535
     41  C         15.5950   46.6610   -8.1490 C.2   287  PRO287      0.2598
     42  O         14.8230   47.5390   -8.5510 O.2   287  PRO287     -0.2715
     43  CB        16.3260   47.5580   -5.9160 C.3   287  PRO287      0.0310
     44  CG        17.3720   48.5810   -5.5950 C.3   287  PRO287      0.0237
     45  CD        17.6610   49.2480   -6.9440 C.3   287  PRO287      0.0939
     46  N         15.4560   45.3920   -8.4940 N.am  288  ARG288     -0.1964
     47  CA        14.3940   44.8910   -9.3770 C.3   288  ARG288      0.1729
     48  C         13.0100   45.4920   -9.0220 C.2   288  ARG288      0.2616
     49  O         12.3690   46.1420   -9.8750 O.2   288  ARG288     -0.2715
     50  CB        14.3970   43.3590   -9.2750 C.3   288  ARG288      0.0348
     51  CG        13.7620   42.5790  -10.3850 C.3   288  ARG288      0.0492
     52  CD        12.5890   41.7580   -9.8250 C.3   288  ARG288      0.2205
     53  NE        12.9800   40.8900   -8.7300 N.pl3 288  ARG288     -0.0865
     54  CZ        13.8130   39.8580   -8.8610 C.cat 288  ARG288      0.5346
     55  NH1       14.3440   39.5870  -10.0530 N.pl3 288  ARG288      0.1354
     56  NH2       14.1060   39.0710   -7.8230 N.pl3 288  ARG288      0.1354
     57  N         12.5820   45.3120   -7.7600 N.am  289  ASP289     -0.1957
     58  CA        11.3070   45.8470   -7.2970 C.3   289  ASP289      0.1840
     59  C         11.1090   47.3410   -7.5170 C.2   289  ASP289      0.2621
     60  O         10.0090   47.7600   -7.9030 O.2   289  ASP289     -0.2715
     61  CB        11.0820   45.5770   -5.8190 C.3   289  ASP289      0.1450
     62  CG        10.7820   44.1310   -5.4960 C.2   289  ASP289      0.3671
     63  OD1       11.1180   43.7670   -4.3290 O.co2 289  ASP289     -0.2456
     64  OD2       10.2330   43.4050   -6.3560 O.co2 289  ASP289     -0.2456
     65  N         12.1530   48.1300   -7.2890 N.am  290  LYS290     -0.1977
     66  CA        12.1050   49.5920   -7.4750 C.3   290  LYS290      0.1596
     67  C         11.9640   49.9070   -8.9470 C.2   290  LYS290      0.2287
     68  O         11.2980   50.8520   -9.2950 O.2   290  LYS290     -0.2864
     69  CB        13.3940   50.2570   -6.9630 C.3   290  LYS290      0.0298
     70  CG        13.7510   50.0410   -5.5040 C.3   290  LYS290      0.0038
     71  CD        12.7350   50.7360   -4.6200 C.3   290  LYS290      0.0206
     72  CE        12.9440   50.4520   -3.1330 C.3   290  LYS290      0.1093
     73  NZ        11.9770   51.2300   -2.2850 N.3   290  LYS290     -0.1314
     74  N          8.3670   49.1290   -9.7680 N.3   293  GLN293     -0.1245
     75  CA         7.4960   50.0950   -9.1420 C.3   293  GLN293      0.1566
     76  C          7.5610   51.4530   -9.8430 C.2   293  GLN293      0.2260
     77  O          6.5610   52.2030   -9.8730 O.2   293  GLN293     -0.2867
     78  CB         7.8140   50.2870   -7.6580 C.3   293  GLN293      0.0367
     79  CG         7.5060   49.0550   -6.8420 C.3   293  GLN293      0.0905
     80  CD         8.2240   49.0560   -5.5350 C.2   293  GLN293      0.2608
     81  OE1        8.1920   48.0300   -4.8210 O.2   293  GLN293     -0.2717
     82  NE2        8.8750   50.1900   -5.1800 N.am  293  GLN293     -0.0878
     83  N          4.5210   54.0260  -10.9840 N.3   297  HIS297     -0.1241
     84  CA         4.5610   55.4490  -10.6540 C.3   297  HIS297      0.1621
     85  C          4.5210   56.2710  -11.9590 C.2   297  HIS297      0.2264
     86  O          3.7330   57.1930  -12.0780 O.2   297  HIS297     -0.2867
     87  CB         5.7950   55.7750   -9.8430 C.3   297  HIS297      0.0745
     88  CG         5.8390   55.0870   -8.5110 C.ar  297  HIS297      0.0817
     89  ND1        4.8120   55.1630   -7.5990 N.ar  297  HIS297     -0.2268
     90  CD2        6.8060   54.3430   -7.9150 C.ar  297  HIS297      0.1154
     91  CE1        5.1360   54.4950   -6.5020 C.ar  297  HIS297      0.1986
     92  NE2        6.3420   53.9830   -6.6690 N.ar  297  HIS297     -0.2212
     93  N         12.0680   36.8000   -2.2080 N.3   390  ASN390     -0.1225
     94  CA        12.5260   37.3860   -3.4840 C.3   390  ASN390      0.1785
     95  C         13.7840   36.6830   -4.0230 C.2   390  ASN390      0.2597
     96  O         14.8660   36.8070   -3.4900 O.2   390  ASN390     -0.2718
     97  CB        12.8120   38.8420   -3.2730 C.3   390  ASN390      0.1169
     98  CG        12.0680   39.7380   -4.2180 C.2   390  ASN390      0.2627
     99  OD1       11.5700   39.2940   -5.2110 O.2   390  ASN390     -0.2716
    100  ND2       12.0230   41.0420   -3.9030 N.am  390  ASN390     -0.0877
    101  N         13.6430   35.9280   -5.0810 N.am  391  ARG391     -0.1966
    102  CA        14.7110   35.1480   -5.6760 C.3   391  ARG391      0.1729
    103  C         15.7580   36.0740   -6.2250 C.2   391  ARG391      0.2616
    104  O         15.4970   37.1340   -6.7170 O.2   391  ARG391     -0.2715
    105  CB        14.1900   34.2340   -6.7990 C.3   391  ARG391      0.0348
    106  CG        15.2110   33.3280   -7.4420 C.3   391  ARG391      0.0492
    107  CD        14.6530   32.5270   -8.6020 C.3   391  ARG391      0.2205
    108  NE        14.2040   33.3620   -9.7330 N.pl3 391  ARG391     -0.0865
    109  CZ        14.9630   33.6490  -10.7900 C.cat 391  ARG391      0.5346
    110  NH1       16.1770   33.1570  -10.8500 N.pl3 391  ARG391      0.1354
    111  NH2       14.5570   34.4280  -11.7720 N.pl3 391  ARG391      0.1354
    112  N         16.9810   35.6260   -6.1580 N.am  392  LEU392     -0.1977
    113  CA        18.1000   36.3710   -6.6540 C.3   392  LEU392      0.1596
    114  C         18.3180   35.9070   -8.0670 C.2   392  LEU392      0.2287
    115  O         18.3170   34.6990   -8.2870 O.2   392  LEU392     -0.2864
    116  CB        19.3180   36.0820   -5.8050 C.3   392  LEU392      0.0297
    117  CG        20.4170   37.1350   -5.7960 C.3   392  LEU392      0.0022
    118  CD1       19.8700   38.4400   -5.3010 C.3   392  LEU392      0.0001
    119  CD2       21.5600   36.6540   -4.9220 C.3   392  LEU392      0.0001
    120  N          1.7780   46.1210   -6.7450 N.3   467  TYR467     -0.1241
    121  CA         1.3540   46.8380   -5.5480 C.3   467  TYR467      0.1605
    122  C          0.0370   46.2540   -5.1180 C.2   467  TYR467      0.2264
    123  O         -0.8110   46.1460   -5.9540 O.2   467  TYR467     -0.2867
    124  CB         1.1890   48.3230   -5.8260 C.3   467  TYR467      0.0534
    125  CG         2.4270   49.1350   -5.5710 C.ar  467  TYR467     -0.0201
    126  CD1        2.9950   49.9180   -6.5760 C.ar  467  TYR467     -0.0009
    127  CD2        3.0420   49.1030   -4.3180 C.ar  467  TYR467     -0.0009
    128  CE1        4.1520   50.6590   -6.3470 C.ar  467  TYR467      0.0417
    129  CE2        4.2090   49.8390   -4.0900 C.ar  467  TYR467      0.0417
    130  CZ         4.7500   50.6090   -5.1100 C.ar  467  TYR467      0.1957
    131  OH         5.8520   51.3840   -4.8520 O.3   467  TYR467     -0.2866
    132  N          9.9710   41.8710    0.3270 N.3   531  GLY531     -0.1225
    133  CA        10.3000   41.3020   -0.9720 C.3   531  GLY531      0.1811
    134  C          9.2570   41.5650   -2.0070 C.2   531  GLY531      0.2280
    135  O          8.7410   42.6860   -2.1170 O.2   531  GLY531     -0.2866
    136  N          4.3670   43.6490   -1.6500 N.3   534  GLN534     -0.1245
    137  CA         4.2690   45.0690   -1.2590 C.3   534  GLN534      0.1566
    138  C          2.8090   45.5570   -1.1930 C.2   534  GLN534      0.2260
    139  O          2.0270   45.4540   -2.1870 O.2   534  GLN534     -0.2867
    140  CB         5.0260   45.9570   -2.2980 C.3   534  GLN534      0.0367
    141  CG         6.5190   45.7320   -2.3160 C.3   534  GLN534      0.0905
    142  CD         7.1750   46.1200   -0.9760 C.2   534  GLN534      0.2608
    143  OE1        7.0000   47.2540   -0.5110 O.2   534  GLN534     -0.2717
    144  NE2        7.9130   45.2120   -0.3550 N.am  534  GLN534     -0.0878
    145  N          2.7720   48.8640    4.9690 N.3   541  THR541     -0.1218
    146  CA         3.7110   49.2990    3.9560 C.3   541  THR541      0.1862
    147  C          5.1700   49.0270    4.2690 C.2   541  THR541      0.2287
    148  O          6.0190   49.3650    3.4430 O.2   541  THR541     -0.2866
    149  CB         3.6130   50.8120    3.6830 C.3   541  THR541      0.1770
    150  OG1        4.0020   51.5280    4.8750 O.3   541  THR541     -0.2211
    151  CG2        2.2050   51.1690    3.3170 C.3   541  THR541      0.0375
@<TRIPOS>BOND
     1    26    27    1
     2    28    29    2
     3    28    27    1
     4    27    30    1
     5    30    31    1
     6    31    32    1
     7    32    33   ar
     8    32    34   ar
     9    86    85    2
    10    85    84    1
    11   111   109    1
    12    35    36    1
    13    83    84    1
    14    18    19    1
    15   110   109    1
    16   109   108    2
    17    84    87    1
    18    51    52    1
    19    51    50    1
    20    55    54    1
    21    38    37    2
    22    49    48    2
    23    77    76    2
    24    76    75    1
    25    87    88    1
    26    52    53    1
    27    74    75    1
    28   108   107    1
    29    36    37    1
    30    19    20    1
    31    47    50    1
    32    47    48    1
    33    47    46    1
    34    68    67    2
    35    22    20   am
    36    22    23    1
    37    37    39   am
    38    75    78    1
    39    48    57   am
    40    67    66    1
    41    54    53    2
    42    54    56    1
    43    20    21    2
    44   107   106    1
    45    42    41    2
    46    88    90   ar
    47    88    89   ar
    48    46    41   am
    49    23    24    1
    50   115   114    2
    51    41    40    1
    52   114   113    1
    53    90    92   ar
    54    60    59    2
    55    39    40    1
    56    39    45    1
    57    57    58    1
    58    78    79    1
    59    24    25    2
    60    89    91   ar
    61    59    58    1
    62    59    65   am
    63    66    65    1
    64    66    69    1
    65   106   105    1
    66    58    61    1
    67    40    43    1
    68    69    70    1
    69    45    44    1
    70    79    80    1
    71   105   102    1
    72   120   121    1
    73   104   103    2
    74    92    91   ar
    75   113   112    1
    76   113   116    1
    77   126   128   ar
    78   126   125   ar
    79    64    62   ar
    80   128   130   ar
    81   103   112   am
    82   103   102    1
    83   123   122    2
    84    43    44    1
    85   124   125    1
    86   124   121    1
    87    61    62    1
    88   116   117    1
    89   117   118    1
    90   117   119    1
    91   102   101    1
    92   125   127   ar
    93   121   122    1
    94    80    82   am
    95    80    81    2
    96    70    71    1
    97    62    63   ar
    98    99    98    2
    99   130   131    1
   100   130   129   ar
   101   101    95   am
   102    71    72    1
   103   127   129   ar
   104    98   100   am
   105    98    97    1
   106    95    96    2
   107    95    94    1
   108    94    97    1
   109    94    93    1
   110    72    73    1
   111   141   140    1
   112   141   142    1
   113   140   137    1
   114   139   138    2
   115   135   134    2
   116   134   133    1
   117     9     8    2
   118   136   137    1
   119     7     8    1
   120     7     6    1
   121   137   138    1
   122   142   143    2
   123   142   144   am
   124   133   132    1
   125     6     3   am
   126     3     4    2
   127     3     2    1
   128    10    11    1
   129     5     2    1
   130     2     1    1
   131    17    15   ar
   132    14    15    1
   133    14    11    1
   134    15    16   ar
   135    11    12    1
   136   151   149    1
   137   148   147    2
   138   149   146    1
   139   149   150    1
   140   146   147    1
   141   146   145    1
   142    12    13    2
