@<TRIPOS>MOLECULE
tmp/1kf6G01.pdb
 119 114 0 0 0
SMALL
GASTEIGER

@<TRIPOS>ATOM
      1  N         48.9310  -24.7470  -39.7330 N.3    16  TRP16      -0.1241
      2  CA        48.8200  -25.7170  -40.7990 C.3    16  TRP16       0.1605
      3  C         50.0250  -26.6320  -40.7540 C.2    16  TRP16       0.2264
      4  O         49.9620  -27.7840  -41.1510 O.2    16  TRP16      -0.2867
      5  CB        48.7120  -24.9950  -42.1520 C.3    16  TRP16       0.0550
      6  CG        49.8000  -23.9850  -42.2710 C.ar   16  TRP16       0.0003
      7  CD1       49.7360  -22.6630  -41.9230 C.ar   16  TRP16       0.0946
      8  CD2       51.1510  -24.2320  -42.6950 C.ar   16  TRP16       0.0152
      9  NE1       50.9650  -22.0740  -42.1060 N.ar   16  TRP16      -0.2442
     10  CE2       51.8510  -23.0110  -42.5790 C.ar   16  TRP16       0.0810
     11  CE3       51.8350  -25.3670  -43.1600 C.ar   16  TRP16       0.0012
     12  CZ2       53.1960  -22.8900  -42.9060 C.ar   16  TRP16       0.0191
     13  CZ3       53.1740  -25.2450  -43.4840 C.ar   16  TRP16       0.0001
     14  CH2       53.8400  -24.0100  -43.3560 C.ar   16  TRP16       0.0015
     15  N         49.3600  -33.1410  -41.3660 N.3    20  PRO20      -0.2116
     16  CA        49.3790  -33.3190  -42.8120 C.3    20  PRO20       0.1372
     17  C         48.1920  -32.7990  -43.5640 C.2    20  PRO20       0.2244
     18  O         48.3620  -32.1770  -44.6210 O.2    20  PRO20      -0.2868
     19  CB        49.5770  -34.8120  -42.9630 C.3    20  PRO20       0.0268
     20  CG        50.5100  -35.0900  -41.8240 C.3    20  PRO20       0.0207
     21  CD        49.9310  -34.3100  -40.6700 C.3    20  PRO20       0.0892
     22  N         48.5800  -29.2490  -44.0510 N.3    23  ARG23      -0.1231
     23  CA        49.6870  -28.9950  -44.9590 C.3    23  ARG23       0.1694
     24  C         49.2210  -29.1330  -46.3980 C.2    23  ARG23       0.2592
     25  O         49.6030  -28.3230  -47.2550 O.2    23  ARG23      -0.2718
     26  CB        50.8630  -29.9270  -44.7080 C.3    23  ARG23       0.0321
     27  CG        51.5590  -29.7330  -43.3760 C.3    23  ARG23       0.0489
     28  CD        52.9010  -30.4380  -43.4120 C.3    23  ARG23       0.2205
     29  NE        53.7400  -30.0470  -42.2770 N.pl3  23  ARG23      -0.0865
     30  CZ        54.9980  -30.4690  -42.0560 C.cat  23  ARG23       0.5346
     31  NH1       55.6310  -31.3210  -42.8870 N.pl3  23  ARG23       0.1354
     32  NH2       55.6390  -30.0310  -40.9760 N.pl3  23  ARG23       0.1354
     33  N         48.4100  -30.1470  -46.6750 N.am   24  PHE24      -0.1976
     34  CA        47.9480  -30.3490  -48.0410 C.3    24  PHE24       0.1639
     35  C         46.8740  -29.3480  -48.4560 C.2    24  PHE24       0.2290
     36  O         46.5680  -29.1860  -49.6270 O.2    24  PHE24      -0.2864
     37  CB        47.5220  -31.7990  -48.2360 C.3    24  PHE24       0.0560
     38  CG        48.7080  -32.7390  -48.2560 C.ar   24  PHE24      -0.0200
     39  CD1       49.8440  -32.4580  -49.0400 C.ar   24  PHE24      -0.0042
     40  CD2       48.7380  -33.8740  -47.4500 C.ar   24  PHE24      -0.0042
     41  CE1       50.9630  -33.2870  -49.0240 C.ar   24  PHE24      -0.0003
     42  CE2       49.8470  -34.7210  -47.4150 C.ar   24  PHE24      -0.0003
     43  CZ        50.9600  -34.4130  -48.2070 C.ar   24  PHE24      -0.0000
     44  N         47.1900  -26.1380  -47.5470 N.3    26  MET26      -0.1230
     45  CA        48.0740  -25.0570  -47.9180 C.3    26  MET26       0.1702
     46  C         48.6420  -25.2990  -49.3130 C.2    26  MET26       0.2592
     47  O         48.6530  -24.3910  -50.1590 O.2    26  MET26      -0.2718
     48  CB        49.2160  -24.8770  -46.9170 C.3    26  MET26       0.0401
     49  CG        48.7420  -24.4060  -45.5380 C.3    26  MET26       0.0596
     50  SD        47.8360  -22.8160  -45.6430 S.3    26  MET26      -0.1393
     51  CE        49.0600  -21.6760  -45.0740 C.3    26  MET26       0.0692
     52  N         49.0800  -26.5220  -49.5730 N.am   27  LEU27      -0.1980
     53  CA        49.5940  -26.8190  -50.8790 C.3    27  LEU27       0.1596
     54  C         48.5120  -26.5430  -51.9050 C.2    27  LEU27       0.2287
     55  O         48.7530  -25.8510  -52.8870 O.2    27  LEU27      -0.2864
     56  CB        50.0210  -28.2540  -50.9590 C.3    27  LEU27       0.0297
     57  CG        50.9370  -28.6310  -52.1310 C.3    27  LEU27       0.0022
     58  CD1       52.2820  -27.9060  -51.9690 C.3    27  LEU27       0.0001
     59  CD2       51.1210  -30.1380  -52.1630 C.3    27  LEU27       0.0001
     60  N         48.4950  -22.9240  -52.2960 N.3    30  GLY30      -0.1210
     61  CA        49.7320  -22.4450  -52.8670 C.3    30  GLY30       0.1956
     62  C         49.7800  -22.6030  -54.3850 C.2    30  GLY30       0.2612
     63  O         50.6580  -22.0820  -55.0770 O.2    30  GLY30      -0.2717
     64  N         48.8290  -23.3280  -54.9470 N.am   31  THR31      -0.1952
     65  CA        48.8150  -23.5580  -56.3760 C.3    31  THR31       0.1897
     66  C         48.5910  -22.2360  -57.0710 C.2    31  THR31       0.2313
     67  O         48.9300  -22.0420  -58.2420 O.2    31  THR31      -0.2863
     68  CB        47.6960  -24.5300  -56.6930 C.3    31  THR31       0.1794
     69  OG1       48.0470  -25.8010  -56.1360 O.3    31  THR31      -0.2208
     70  CG2       47.5360  -24.6780  -58.1920 C.3    31  THR31       0.0378
     71  N         50.0140  -19.3220  -56.7300 N.3    33  VAL33      -0.1231
     72  CA        51.2150  -18.6530  -57.2280 C.3    33  VAL33       0.1678
     73  C         51.5800  -19.0620  -58.6590 C.2    33  VAL33       0.2434
     74  O         51.4710  -18.2350  -59.5910 O.2    33  VAL33      -0.2733
     75  CB        52.4220  -18.8920  -56.3080 C.3    33  VAL33       0.0265
     76  CG1       53.6620  -18.2440  -56.8490 C.3    33  VAL33       0.0020
     77  CG2       52.1430  -18.3810  -54.9100 C.3    33  VAL33       0.0020
     78  N         51.9180  -20.3580  -58.8730 N.am   34  PRO34      -0.2729
     79  CA        52.2960  -20.8450  -60.2020 C.3    34  PRO34       0.1401
     80  C         51.3080  -20.4730  -61.2700 C.2    34  PRO34       0.2269
     81  O         51.7050  -20.1910  -62.4200 O.2    34  PRO34      -0.2865
     82  CB        52.4400  -22.3490  -60.0160 C.3    34  PRO34       0.0296
     83  CG        52.8510  -22.4660  -58.5660 C.3    34  PRO34       0.0237
     84  CD        51.9610  -21.4360  -57.8790 C.3    34  PRO34       0.0939
     85  N         57.2580  -27.0940  -62.5490 N.3    74  ILE74      -0.1245
     86  CA        56.5880  -26.9710  -61.2750 C.3    74  ILE74       0.1561
     87  C         55.1890  -26.3930  -61.5390 C.2    74  ILE74       0.2260
     88  O         54.1830  -26.8400  -61.0040 O.2    74  ILE74      -0.2867
     89  CB        57.3530  -26.0430  -60.3490 C.3    74  ILE74       0.0252
     90  CG1       58.7810  -26.5780  -60.2280 C.3    74  ILE74       0.0019
     91  CG2       56.6550  -25.9350  -58.9660 C.3    74  ILE74       0.0019
     92  CD1       59.6860  -25.7540  -59.3560 C.3    74  ILE74       0.0001
     93  N         53.0410  -29.0520  -62.5570 N.3    77  ALA77      -0.1231
     94  CA        52.7810  -29.9410  -61.4480 C.3    77  ALA77       0.1694
     95  C         51.6680  -29.3390  -60.5950 C.2    77  ALA77       0.2591
     96  O         50.6640  -29.9820  -60.2730 O.2    77  ALA77      -0.2718
     97  CB        54.0640  -30.1440  -60.5720 C.3    77  ALA77       0.0304
     98  N         51.8630  -28.0760  -60.2200 N.am   78  ALA78      -0.1980
     99  CA        50.9020  -27.3710  -59.3810 C.3    78  ALA78       0.1597
    100  C         49.5750  -27.3070  -60.1180 C.2    78  ALA78       0.2287
    101  O         48.5280  -27.4890  -59.4820 O.2    78  ALA78      -0.2864
    102  CB        51.4250  -25.9810  -59.0450 C.3    78  ALA78       0.0319
    103  N         47.8060  -30.5690  -59.7640 N.3    81  LEU81      -0.1245
    104  CA        47.2360  -30.6720  -58.4030 C.3    81  LEU81       0.1561
    105  C         45.9170  -29.9000  -58.3290 C.2    81  LEU81       0.2260
    106  O         44.9640  -30.3590  -57.7300 O.2    81  LEU81      -0.2867
    107  CB        48.1250  -30.0460  -57.3180 C.3    81  LEU81       0.0270
    108  CG        47.7010  -30.1440  -55.8610 C.3    81  LEU81       0.0019
    109  CD1       47.2390  -31.5290  -55.4990 C.3    81  LEU81       0.0001
    110  CD2       48.8760  -29.8030  -54.9220 C.3    81  LEU81       0.0001
    111  N         43.1980  -31.7080  -60.1610 N.3    84  LYS84      -0.1245
    112  CA        42.8770  -32.8880  -59.3970 C.3    84  LYS84       0.1561
    113  C         41.9150  -32.5180  -58.2780 C.2    84  LYS84       0.2260
    114  O         40.7760  -33.0180  -58.2230 O.2    84  LYS84      -0.2867
    115  CB        44.1650  -33.4460  -58.8180 C.3    84  LYS84       0.0271
    116  CG        44.0400  -34.2800  -57.5670 C.3    84  LYS84       0.0035
    117  CD        43.5060  -35.6550  -57.8310 C.3    84  LYS84       0.0206
    118  CE        43.2470  -36.3530  -56.4790 C.3    84  LYS84       0.1093
    119  NZ        44.3620  -36.2070  -55.4940 N.3    84  LYS84      -0.1314
@<TRIPOS>BOND
     1    93    94    1
     2    85    86    1
     3    81    80    2
     4    87    86    1
     5    87    88    2
     6    94    95    1
     7    94    97    1
     8    86    89    1
     9    80    79    1
    10    95    96    2
    11    95    98   am
    12    89    90    1
    13    89    91    1
    14    90    92    1
    15    98    99    1
    16    79    82    1
    17    79    78    1
    18   111   112    1
    19   100   101    2
    20   100    99    1
    21    82    83    1
    22   103   104    1
    23    74    73    2
    24   112   115    1
    25   112   113    1
    26    99   102    1
    27    78    73   am
    28    78    84    1
    29   115   116    1
    30    73    72    1
    31    83    84    1
    32   104   105    1
    33   104   107    1
    34   105   106    2
    35   113   114    2
    36    67    66    2
    37    70    68    1
    38   117   116    1
    39   117   118    1
    40   107   108    1
    41    72    71    1
    42    72    75    1
    43    66    65    1
    44    76    75    1
    45    68    65    1
    46    68    69    1
    47   118   119    1
    48    65    64    1
    49    75    77    1
    50   108   109    1
    51   108   110    1
    52    63    62    2
    53    64    62   am
    54    62    61    1
    55    55    54    2
    56    61    60    1
    57    59    57    1
    58    57    58    1
    59    57    56    1
    60    54    53    1
    61    56    53    1
    62    53    52    1
    63    47    46    2
    64    36    35    2
    65    52    46   am
    66    46    45    1
    67    39    41   ar
    68    39    38   ar
    69    41    43   ar
    70    35    34    1
    71    38    37    1
    72    38    40   ar
    73    37    34    1
    74    43    42   ar
    75    34    33    1
    76    45    44    1
    77    45    48    1
    78    40    42   ar
    79    25    24    2
    80    48    49    1
    81    33    24   am
    82    24    23    1
    83    50    49    1
    84    50    51    1
    85    23    26    1
    86    23    22    1
    87    26    27    1
    88    18    17    2
    89    17    16    1
    90    13    14   ar
    91    13    11   ar
    92    28    27    1
    93    28    29    1
    94    14    12   ar
    95    11     8   ar
    96    19    16    1
    97    19    20    1
    98    12    10   ar
    99    31    30    1
   100    16    15    1
   101     8    10   ar
   102     8     6   ar
   103    10     9   ar
   104    29    30    2
   105     6     5    1
   106     6     7   ar
   107     5     2    1
   108     9     7   ar
   109    30    32    1
   110    20    21    1
   111    15    21    1
   112     4     3    2
   113     2     3    1
   114     2     1    1
