@<TRIPOS>MOLECULE
tmp/1kfaD00.pdb
 135 134 0 0 0
SMALL
GASTEIGER

@<TRIPOS>ATOM
      1  N         55.6130   13.9170  -55.9880 N.3    29  SER29      -0.1202
      2  CA        55.7310   15.3470  -56.2360 C.3    29  SER29       0.2020
      3  C         54.7420   16.1640  -55.4260 C.2    29  SER29       0.2619
      4  O         54.2550   17.1990  -55.8800 O.2    29  SER29      -0.2717
      5  CB        55.5800   15.6460  -57.7310 C.3    29  SER29       0.2103
      6  OG        54.4240   15.0360  -58.2670 O.3    29  SER29      -0.2182
      7  N         54.4600   15.6850  -54.2190 N.am   30  TYR30      -0.1961
      8  CA        53.5480   16.3500  -53.2920 C.3    30  TYR30       0.1771
      9  C         54.0230   16.2010  -51.8400 C.2    30  TYR30       0.2619
     10  O         54.4900   15.1390  -51.4220 O.2    30  TYR30      -0.2715
     11  CB        52.1330   15.7580  -53.3680 C.3    30  TYR30       0.0574
     12  CG        51.3020   16.1340  -54.5730 C.ar   30  TYR30      -0.0198
     13  CD1       51.3370   15.3690  -55.7410 C.ar   30  TYR30      -0.0009
     14  CD2       50.4370   17.2280  -54.5300 C.ar   30  TYR30      -0.0009
     15  CE1       50.5310   15.6800  -56.8310 C.ar   30  TYR30       0.0417
     16  CE2       49.6270   17.5470  -55.6150 C.ar   30  TYR30       0.0417
     17  CZ        49.6810   16.7690  -56.7610 C.ar   30  TYR30       0.1957
     18  OH        48.8980   17.0940  -57.8430 O.3    30  TYR30      -0.2866
     19  N         53.9070   17.2730  -51.0730 N.am   31  ALA31      -0.1977
     20  CA        54.2520   17.2100  -49.6680 C.3    31  ALA31       0.1597
     21  C         53.0120   16.5700  -49.0200 C.2    31  ALA31       0.2287
     22  O         51.8900   16.7880  -49.4820 O.2    31  ALA31      -0.2864
     23  CB        54.4780   18.6090  -49.1290 C.3    31  ALA31       0.0319
     24  N         58.0410   16.8630  -46.5930 N.3    50  THR50      -0.1203
     25  CA        58.2630   17.5220  -47.8540 C.3    50  THR50       0.1994
     26  C         58.6580   16.5890  -48.9790 C.2    50  THR50       0.2619
     27  O         59.1120   15.4610  -48.7790 O.2    50  THR50      -0.2717
     28  CB        59.3390   18.6310  -47.6600 C.3    50  THR50       0.1784
     29  OG1       58.6760   19.8770  -47.4400 O.3    50  THR50      -0.2211
     30  CG2       60.2750   18.7530  -48.8500 C.3    50  THR50       0.0376
     31  N         58.4480   17.0820  -50.1790 N.am   51  THR51      -0.1938
     32  CA        58.8060   16.3710  -51.3780 C.3    51  THR51       0.2028
     33  C         60.2820   15.9380  -51.3180 C.2    51  THR51       0.2642
     34  O         60.6250   14.8270  -51.7050 O.2    51  THR51      -0.2714
     35  CB        58.5690   17.3000  -52.5650 C.3    51  THR51       0.1808
     36  OG1       57.4070   16.8670  -53.2660 O.3    51  THR51      -0.2208
     37  CG2       59.7580   17.3450  -53.4760 C.3    51  THR51       0.0379
     38  N         61.1520   16.8130  -50.8270 N.am   52  ARG52      -0.1977
     39  CA        62.5690   16.4900  -50.7580 C.3    52  ARG52       0.1597
     40  C         63.0050   15.8460  -49.4500 C.2    52  ARG52       0.2287
     41  O         64.1960   15.6330  -49.2250 O.2    52  ARG52      -0.2864
     42  CB        63.4070   17.7390  -51.0330 C.3    52  ARG52       0.0334
     43  CG        63.5340   18.0810  -52.5160 C.3    52  ARG52       0.0492
     44  CD        64.1170   19.4750  -52.7050 C.3    52  ARG52       0.2205
     45  NE        64.5020   19.7850  -54.0840 N.pl3  52  ARG52      -0.0865
     46  CZ        63.6610   19.8920  -55.1080 C.cat  52  ARG52       0.5346
     47  NH1       62.3560   19.7120  -54.9340 N.pl3  52  ARG52       0.1354
     48  NH2       64.1270   20.2010  -56.3090 N.pl3  52  ARG52       0.1354
     49  N         62.2890   17.1140  -46.3440 N.3    54  TYR54      -0.1241
     50  CA        62.3430   18.0410  -45.2130 C.3    54  TYR54       0.1605
     51  C         61.1740   17.6720  -44.3080 C.2    54  TYR54       0.2264
     52  O         60.1190   17.2580  -44.7620 O.2    54  TYR54      -0.2867
     53  CB        62.2160   19.4980  -45.6610 C.3    54  TYR54       0.0534
     54  CG        62.0330   20.4520  -44.5060 C.ar   54  TYR54      -0.0201
     55  CD1       63.0300   20.6270  -43.5570 C.ar   54  TYR54      -0.0009
     56  CD2       60.8460   21.1630  -44.3490 C.ar   54  TYR54      -0.0009
     57  CE1       62.8490   21.4930  -42.4700 C.ar   54  TYR54       0.0417
     58  CE2       60.6510   22.0320  -43.2680 C.ar   54  TYR54       0.0417
     59  CZ        61.6510   22.1900  -42.3390 C.ar   54  TYR54       0.1957
     60  OH        61.4560   23.0340  -41.2810 O.3    54  TYR54      -0.2866
     61  N         58.8200   18.6670  -40.6070 N.3    56  PHE56      -0.1241
     62  CA        58.4780   19.6030  -39.5370 C.3    56  PHE56       0.1605
     63  C         57.2060   19.2540  -38.7680 C.2    56  PHE56       0.2264
     64  O         56.2510   18.6980  -39.3190 O.2    56  PHE56      -0.2867
     65  CB        58.4280   21.0510  -40.0540 C.3    56  PHE56       0.0534
     66  CG        57.3990   21.3070  -41.1110 C.ar   56  PHE56      -0.0203
     67  CD1       56.2400   22.0190  -40.8080 C.ar   56  PHE56      -0.0042
     68  CD2       57.6240   20.9170  -42.4250 C.ar   56  PHE56      -0.0042
     69  CE1       55.3210   22.3480  -41.8050 C.ar   56  PHE56      -0.0003
     70  CE2       56.7180   21.2350  -43.4330 C.ar   56  PHE56      -0.0003
     71  CZ        55.5590   21.9580  -43.1270 C.ar   56  PHE56      -0.0000
     72  N         49.1470   18.1020  -49.5870 N.3    96  GLU96      -0.1245
     73  CA        49.2650   19.5290  -49.7700 C.3    96  GLU96       0.1567
     74  C         49.0410   19.6580  -51.2720 C.2    96  GLU96       0.2260
     75  O         49.9770   19.5470  -52.0610 O.2    96  GLU96      -0.2867
     76  CB        50.6610   19.9990  -49.3760 C.3    96  GLU96       0.0388
     77  CG        50.9900   19.7680  -47.9100 C.3    96  GLU96       0.1160
     78  CD        50.0080   20.4530  -46.9580 C.2    96  GLU96       0.3649
     79  OE1       49.6290   21.6100  -47.2470 O.co2  96  GLU96      -0.2457
     80  OE2       49.6350   19.8430  -45.9220 O.co2  96  GLU96      -0.2457
     81  N         47.9250   22.2730  -53.6790 N.3    98  LEU98      -0.1231
     82  CA        48.4070   23.3290  -54.5690 C.3    98  LEU98       0.1693
     83  C         49.8570   23.0850  -54.9990 C.2    98  LEU98       0.2592
     84  O         50.7870   23.6540  -54.4310 O.2    98  LEU98      -0.2718
     85  CB        48.2620   24.6770  -53.8620 C.3    98  LEU98       0.0284
     86  CG        46.9710   24.7790  -53.0350 C.3    98  LEU98       0.0019
     87  CD1       46.8620   26.1510  -52.3890 C.3    98  LEU98       0.0001
     88  CD2       45.7630   24.5020  -53.9280 C.3    98  LEU98       0.0001
     89  N         50.0240   22.2650  -56.0370 N.am   99  LEU99      -0.1966
     90  CA        51.3360   21.8730  -56.5400 C.3    99  LEU99       0.1728
     91  C         52.5080   22.8390  -56.4990 C.2    99  LEU99       0.2616
     92  O         53.4360   22.6200  -55.7260 O.2    99  LEU99      -0.2715
     93  CB        51.2140   21.2660  -57.9370 C.3    99  LEU99       0.0311
     94  CG        51.0660   19.7380  -57.8420 C.3    99  LEU99       0.0022
     95  CD1       51.2270   19.1110  -59.2110 C.3    99  LEU99       0.0001
     96  CD2       52.1220   19.1730  -56.8770 C.3    99  LEU99       0.0001
     97  N         52.5340   23.8840  -57.3120 N.am  100  LEU100     -0.1963
     98  CA        53.6960   24.7690  -57.1900 C.3   100  LEU100      0.1728
     99  C         53.3280   26.0830  -56.5060 C.2   100  LEU100      0.2616
    100  O         53.7020   27.1590  -56.9810 O.2   100  LEU100     -0.2715
    101  CB        54.3330   25.0480  -58.5560 C.3   100  LEU100      0.0311
    102  CG        54.6740   23.8440  -59.4430 C.3   100  LEU100      0.0022
    103  CD1       55.5670   24.3080  -60.5620 C.3   100  LEU100      0.0001
    104  CD2       55.3710   22.7510  -58.6490 C.3   100  LEU100      0.0001
    105  N         52.5990   25.9820  -55.3900 N.am  101  ASP101     -0.1957
    106  CA        52.1570   27.1480  -54.6280 C.3   101  ASP101      0.1840
    107  C         51.6570   26.8250  -53.2140 C.2   101  ASP101      0.2622
    108  O         50.5400   26.3620  -53.0230 O.2   101  ASP101     -0.2715
    109  CB        51.0680   27.8880  -55.4070 C.3   101  ASP101      0.1450
    110  CG        50.1220   28.6640  -54.5080 C.2   101  ASP101      0.3671
    111  OD1       50.5770   29.4860  -53.6890 O.co2 101  ASP101     -0.2456
    112  OD2       48.9040   28.4490  -54.6270 O.co2 101  ASP101     -0.2456
    113  N         52.5050   27.1040  -52.2340 N.am  102  TYR102     -0.1960
    114  CA        52.2510   26.8810  -50.8140 C.3   102  TYR102      0.1771
    115  C         51.3520   25.7510  -50.2910 C.2   102  TYR102      0.2619
    116  O         50.6400   25.1020  -51.0400 O.2   102  TYR102     -0.2715
    117  CB        51.8100   28.1910  -50.1660 C.3   102  TYR102      0.0574
    118  CG        52.5110   28.4130  -48.8530 C.ar  102  TYR102     -0.0198
    119  CD1       51.8120   28.3860  -47.6560 C.ar  102  TYR102     -0.0009
    120  CD2       53.8920   28.5940  -48.8080 C.ar  102  TYR102     -0.0009
    121  CE1       52.4670   28.5320  -46.4380 C.ar  102  TYR102      0.0417
    122  CE2       54.5580   28.7400  -47.5980 C.ar  102  TYR102      0.0417
    123  CZ        53.8390   28.7100  -46.4130 C.ar  102  TYR102      0.1957
    124  OH        54.4830   28.8740  -45.2000 O.3   102  TYR102     -0.2866
    125  N         51.4220   25.5390  -48.9720 N.am  103  PHE103     -0.1974
    126  CA        50.6460   24.5250  -48.2690 C.3   103  PHE103      0.1639
    127  C         49.1720   24.8660  -48.2540 C.2   103  PHE103      0.2290
    128  O         48.7980   26.0320  -48.2140 O.2   103  PHE103     -0.2864
    129  CB        51.1010   24.3830  -46.8160 C.3   103  PHE103      0.0560
    130  CG        52.5400   24.0170  -46.6600 C.ar  103  PHE103     -0.0200
    131  CD1       53.5040   25.0060  -46.4490 C.ar  103  PHE103     -0.0042
    132  CD2       52.9420   22.6810  -46.7240 C.ar  103  PHE103     -0.0042
    133  CE1       54.8430   24.6750  -46.3030 C.ar  103  PHE103     -0.0003
    134  CE2       54.2870   22.3370  -46.5800 C.ar  103  PHE103     -0.0003
    135  CZ        55.2370   23.3380  -46.3690 C.ar  103  PHE103     -0.0000
@<TRIPOS>BOND
     1   103   102    1
     2   102   104    1
     3   102   101    1
     4    95    94    1
     5   101    98    1
     6     6     5    1
     7    93    94    1
     8    93    90    1
     9    18    17    1
    10    94    96    1
    11     5     2    1
    12    97    98    1
    13    97    91   am
    14    98    99    1
    15   100    99    2
    16    15    17   ar
    17    15    13   ar
    18    17    16   ar
    19    90    91    1
    20    90    89    1
    21    99   105   am
    22    91    92    2
    23    48    46    1
    24     2     1    1
    25     2     3    1
    26    89    83   am
    27     4     3    2
    28    13    12   ar
    29    16    14   ar
    30     3     7   am
    31   109   106    1
    32   109   110    1
    33   105   106    1
    34    46    47    1
    35    46    45    2
    36    83    82    1
    37    83    84    2
    38   106   107    1
    39   112   110   ar
    40    12    14   ar
    41    12    11    1
    42    82    85    1
    43    82    81    1
    44   110   111   ar
    45     7     8    1
    46    45    44    1
    47    88    86    1
    48    85    86    1
    49    37    35    1
    50    11     8    1
    51     8     9    1
    52    36    35    1
    53   107   108    2
    54   107   113   am
    55    86    87    1
    56    44    43    1
    57    35    32    1
    58    43    42    1
    59   113   114    1
    60    75    74    2
    61     9    10    2
    62     9    19   am
    63    34    33    2
    64    32    33    1
    65    32    31    1
    66    33    38   am
    67    74    73    1
    68    19    20    1
    69   116   115    2
    70    42    39    1
    71    38    39    1
    72   114   115    1
    73   114   117    1
    74    39    40    1
    75   115   125   am
    76    31    26   am
    77   117   118    1
    78    73    72    1
    79    73    76    1
    80    20    23    1
    81    20    21    1
    82    22    21    2
    83    40    41    2
    84    76    77    1
    85    26    27    2
    86    26    25    1
    87   125   126    1
    88   118   120   ar
    89   118   119   ar
    90    30    28    1
    91   120   122   ar
    92   126   127    1
    93   126   129    1
    94   127   128    2
    95    77    78    1
    96    25    28    1
    97    25    24    1
    98    28    29    1
    99   119   121   ar
   100   122   123   ar
   101    79    78   ar
   102    78    80   ar
   103   129   130    1
   104   132   130   ar
   105   132   134   ar
   106   130   131   ar
   107   134   135   ar
   108   131   133   ar
   109   121   123   ar
   110   123   124    1
   111   135   133   ar
   112    49    50    1
   113    53    50    1
   114    53    54    1
   115    50    51    1
   116    52    51    2
   117    54    56   ar
   118    54    55   ar
   119    56    58   ar
   120    55    57   ar
   121    70    71   ar
   122    70    68   ar
   123    58    59   ar
   124    71    69   ar
   125    57    59   ar
   126    68    66   ar
   127    59    60    1
   128    69    67   ar
   129    66    67   ar
   130    66    65    1
   131    61    62    1
   132    65    62    1
   133    62    63    1
   134    64    63    2
