@<TRIPOS>MOLECULE
tmp/1kfbA00.pdb
 150 142 0 0 0
SMALL
GASTEIGER

@<TRIPOS>ATOM
      1  N         45.1920   32.9980   16.3830 N.3    22  PHE22      -0.1241
      2  CA        46.4110   32.5280   17.0030 C.3    22  PHE22       0.1605
      3  C         47.3920   33.7210   16.9190 C.2    22  PHE22       0.2264
      4  O         47.4580   34.3780   15.8770 O.2    22  PHE22      -0.2867
      5  CB        47.0510   31.3320   16.2500 C.3    22  PHE22       0.0534
      6  CG        48.5160   31.1440   16.5920 C.ar   22  PHE22      -0.0203
      7  CD1       49.4990   31.9150   15.9750 C.ar   22  PHE22      -0.0042
      8  CD2       48.9040   30.2810   17.6190 C.ar   22  PHE22      -0.0042
      9  CE1       50.8430   31.8320   16.3920 C.ar   22  PHE22      -0.0003
     10  CE2       50.2210   30.1980   18.0290 C.ar   22  PHE22      -0.0003
     11  CZ        51.1940   30.9740   17.4190 C.ar   22  PHE22      -0.0000
     12  N         44.3410   31.0620   20.7500 N.3    49  GLU49      -0.1245
     13  CA        45.3540   30.0240   20.6400 C.3    49  GLU49       0.1567
     14  C         46.6110   30.8950   20.7510 C.2    49  GLU49       0.2260
     15  O         46.8290   31.8050   19.9520 O.2    49  GLU49      -0.2867
     16  CB        45.2500   29.2950   19.2930 C.3    49  GLU49       0.0388
     17  CG        46.3000   28.2350   19.1100 C.3    49  GLU49       0.1160
     18  CD        45.7730   26.8790   19.4400 C.2    49  GLU49       0.3649
     19  OE1       45.1460   26.7330   20.5210 O.co2  49  GLU49      -0.2457
     20  OE2       45.9860   25.9600   18.6040 O.co2  49  GLU49      -0.2457
     21  N         57.8960   23.1540   13.6710 N.3    59  ALA59      -0.1231
     22  CA        56.6330   23.2420   12.9140 C.3    59  ALA59       0.1694
     23  C         56.0180   24.6420   12.6670 C.2    59  ALA59       0.2592
     24  O         54.9340   24.7420   12.1030 O.2    59  ALA59      -0.2718
     25  CB        55.5720   22.3510   13.5630 C.3    59  ALA59       0.0304
     26  N         56.6700   25.7170   13.0860 N.am   60  ASP60      -0.1960
     27  CA        56.0990   27.0360   12.8550 C.3    60  ASP60       0.1840
     28  C         56.4020   27.5300   11.4250 C.2    60  ASP60       0.2622
     29  O         57.5400   27.4600   10.9530 O.2    60  ASP60      -0.2715
     30  CB        56.6520   28.0550   13.8630 C.3    60  ASP60       0.1450
     31  CG        56.2050   27.7860   15.3040 C.2    60  ASP60       0.3671
     32  OD1       55.4510   26.8190   15.5910 O.co2  60  ASP60      -0.2456
     33  OD2       56.6220   28.5690   16.1720 O.co2  60  ASP60      -0.2456
     34  N         55.3760   28.0260   10.7430 N.am   61  GLY61      -0.1954
     35  CA        55.5720   28.5610    9.4070 C.3    61  GLY61       0.1869
     36  C         56.3830   29.8480    9.4050 C.2    61  GLY61       0.2309
     37  O         56.6480   30.4700   10.4530 O.2    61  GLY61      -0.2863
     38  N         55.0180   32.8490   11.4180 N.3    64  ILE64      -0.1245
     39  CA        55.0890   32.5760   12.8450 C.3    64  ILE64       0.1561
     40  C         56.5430   32.6280   13.3310 C.2    64  ILE64       0.2260
     41  O         56.8150   33.1400   14.4110 O.2    64  ILE64      -0.2867
     42  CB        54.5060   31.1830   13.1530 C.3    64  ILE64       0.0252
     43  CG1       53.1230   31.0720   12.5000 C.3    64  ILE64       0.0019
     44  CG2       54.4050   30.9870   14.7220 C.3    64  ILE64       0.0019
     45  CD1       52.1680   32.1540   12.9830 C.3    64  ILE64       0.0001
     46  N         49.9050   26.7580   22.4090 N.3   100  LEU100     -0.1245
     47  CA        50.5380   25.9690   21.3380 C.3   100  LEU100      0.1561
     48  C         51.9730   25.9340   21.8480 C.2   100  LEU100      0.2260
     49  O         52.6620   26.9540   21.8900 O.2   100  LEU100     -0.2867
     50  CB        50.4460   26.7090   20.0030 C.3   100  LEU100      0.0270
     51  CG        50.8770   26.0100   18.7110 C.3   100  LEU100      0.0019
     52  CD1       52.3610   25.6950   18.7370 C.3   100  LEU100      0.0001
     53  CD2       50.0890   24.7730   18.5570 C.3   100  LEU100      0.0001
     54  N         55.9160   23.6810   22.3850 N.3   102  TYR102     -0.1241
     55  CA        56.8760   22.7300   21.8350 C.3   102  TYR102      0.1605
     56  C         57.2290   21.9050   23.0620 C.2   102  TYR102      0.2264
     57  O         57.2390   22.4220   24.2020 O.2   102  TYR102     -0.2867
     58  CB        58.0860   23.4340   21.1860 C.3   102  TYR102      0.0534
     59  CG        57.7550   23.7830   19.7500 C.ar  102  TYR102     -0.0201
     60  CD1       57.8990   22.8290   18.7330 C.ar  102  TYR102     -0.0009
     61  CD2       57.1510   24.9960   19.4320 C.ar  102  TYR102     -0.0009
     62  CE1       57.4450   23.0690   17.4380 C.ar  102  TYR102      0.0417
     63  CE2       56.6750   25.2490   18.1330 C.ar  102  TYR102      0.0417
     64  CZ        56.8300   24.2820   17.1430 C.ar  102  TYR102      0.1957
     65  OH        56.4030   24.5340   15.8580 O.3   102  TYR102     -0.2866
     66  N         52.9740   20.8420   19.8420 N.3   129  ALA129     -0.1245
     67  CA        53.1510   20.5830   18.4100 C.3   129  ALA129      0.1562
     68  C         54.0080   19.4190   17.9830 C.2   129  ALA129      0.2260
     69  O         53.7090   18.7800   16.9660 O.2   129  ALA129     -0.2867
     70  CB        53.6180   21.8580   17.7030 C.3   129  ALA129      0.0290
     71  N         46.3660   17.1140   16.9670 N.3   153  ILE153     -0.1245
     72  CA        46.2140   17.5120   15.5740 C.3   153  ILE153      0.1561
     73  C         45.7930   16.2870   14.7730 C.2   153  ILE153      0.2260
     74  O         46.3690   15.2040   14.9080 O.2   153  ILE153     -0.2867
     75  CB        47.5460   18.0340   14.9820 C.3   153  ILE153      0.0252
     76  CG1       47.8280   19.4430   15.5270 C.3   153  ILE153      0.0019
     77  CG2       47.5180   17.9800   13.4270 C.3   153  ILE153      0.0019
     78  CD1       49.1680   20.0250   15.0760 C.3   153  ILE153      0.0001
     79  N         42.2310   19.6270   16.6760 N.3   175  TYR175     -0.1241
     80  CA        42.8540   20.5600   15.7190 C.3   175  TYR175      0.1605
     81  C         42.8960   19.8540   14.3530 C.2   175  TYR175      0.2264
     82  O         43.7160   18.9610   14.1280 O.2   175  TYR175     -0.2867
     83  CB        44.2780   20.9740   16.1750 C.3   175  TYR175      0.0534
     84  CG        44.8740   22.1590   15.4090 C.ar  175  TYR175     -0.0201
     85  CD1       45.0560   22.1000   14.0140 C.ar  175  TYR175     -0.0009
     86  CD2       45.2730   23.3280   16.0680 C.ar  175  TYR175     -0.0009
     87  CE1       45.6170   23.1770   13.2930 C.ar  175  TYR175      0.0417
     88  CE2       45.8420   24.3980   15.3540 C.ar  175  TYR175      0.0417
     89  CZ        46.0090   24.3110   13.9770 C.ar  175  TYR175      0.1957
     90  OH        46.6050   25.3280   13.2870 O.3   175  TYR175     -0.2866
     91  N         43.7810   19.7820   10.6940 N.3   177  LEU177     -0.1245
     92  CA        44.7060   20.3670    9.7460 C.3   177  LEU177      0.1561
     93  C         44.0290   20.3640    8.3770 C.2   177  LEU177      0.2260
     94  O         43.5210   19.3350    7.9230 O.2   177  LEU177     -0.2867
     95  CB        45.9910   19.5460    9.7640 C.3   177  LEU177      0.0270
     96  CG        47.3090   20.2430    9.4710 C.3   177  LEU177      0.0019
     97  CD1       47.4100   21.5160   10.2970 C.3   177  LEU177      0.0001
     98  CD2       48.4590   19.2670    9.7620 C.3   177  LEU177      0.0001
     99  N         45.1580   26.0600    9.4180 N.3   199  PHE199     -0.1227
    100  CA        46.1270   26.0690    8.3250 C.3   199  PHE199      0.1736
    101  C         45.6050   26.8180    7.1070 C.2   199  PHE199      0.2596
    102  O         44.7390   26.3340    6.3730 O.2   199  PHE199     -0.2718
    103  CB        46.5290   24.6650    7.9080 C.3   199  PHE199      0.0547
    104  CG        47.8500   24.2280    8.4930 C.ar  199  PHE199     -0.0202
    105  CD1       48.2480   24.6400    9.7620 C.ar  199  PHE199     -0.0042
    106  CD2       48.6820   23.3980    7.7230 C.ar  199  PHE199     -0.0042
    107  CE1       49.4430   24.1940   10.3290 C.ar  199  PHE199     -0.0003
    108  CE2       49.8950   22.9500    8.2870 C.ar  199  PHE199     -0.0003
    109  CZ        50.2580   23.3740    9.5650 C.ar  199  PHE199     -0.0000
    110  N         46.1410   28.0170    6.9220 N.am  200  GLY200     -0.1942
    111  CA        45.7880   28.8320    5.7840 C.3   200  GLY200      0.2014
    112  C         44.4420   29.5110    5.8000 C.2   200  GLY200      0.2638
    113  O         44.0130   29.9700    4.7520 O.2   200  GLY200     -0.2714
    114  N         43.7680   29.5650    6.9440 N.am  201  ILE201     -0.1977
    115  CA        42.4740   30.2430    6.9940 C.3   201  ILE201      0.1596
    116  C         42.7410   31.7540    7.0350 C.2   201  ILE201      0.2287
    117  O         43.2730   32.2840    8.0140 O.2   201  ILE201     -0.2864
    118  CB        41.6670   29.8700    8.2290 C.3   201  ILE201      0.0276
    119  CG1       41.4820   28.3540    8.3350 C.3   201  ILE201      0.0022
    120  CG2       40.2950   30.5270    8.1250 C.3   201  ILE201      0.0022
    121  CD1       40.6280   27.7660    7.2450 C.3   201  ILE201      0.0001
    122  N         40.5960   28.2140   13.0130 N.3   219  ILE219     -0.1231
    123  CA        41.7190   28.9060   13.5890 C.3   219  ILE219      0.1692
    124  C         42.4670   29.6620   12.4950 C.2   219  ILE219      0.2593
    125  O         42.6690   29.1730   11.3910 O.2   219  ILE219     -0.2718
    126  CB        42.6960   27.9060   14.2600 C.3   219  ILE219      0.0266
    127  CG1       41.9820   27.1910   15.4230 C.3   219  ILE219      0.0019
    128  CG2       44.0080   28.6320   14.6760 C.3   219  ILE219      0.0020
    129  CD1       42.7500   25.8870   15.9050 C.3   219  ILE219      0.0001
    130  N         42.8610   30.8820   12.7990 N.am  220  SER220     -0.1938
    131  CA        43.6180   31.6680   11.8400 C.3   220  SER220      0.2055
    132  C         44.8360   32.2490   12.5470 C.2   220  SER220      0.2644
    133  O         44.7000   32.9950   13.5150 O.2   220  SER220     -0.2714
    134  CB        42.7670   32.8080   11.2510 C.3   220  SER220      0.2130
    135  OG        43.5920   33.6090   10.4390 O.3   220  SER220     -0.2179
    136  N         46.0240   31.8960   12.0620 N.am  221  GLY221     -0.1939
    137  CA        47.2500   32.4130   12.6620 C.3   221  GLY221      0.2014
    138  C         48.0700   33.3250   11.7370 C.2   221  GLY221      0.2640
    139  O         48.1650   34.5260   11.9710 O.2   221  GLY221     -0.2714
    140  N         48.6470   32.7820   10.6710 N.am  222  SER222     -0.1935
    141  CA        49.4760   33.6200    9.8060 C.3   222  SER222      0.2055
    142  C         48.7980   34.9180    9.3280 C.2   222  SER222      0.2642
    143  O         49.4340   36.0030    9.3240 O.2   222  SER222     -0.2714
    144  CB        49.9910   32.7880    8.6190 C.3   222  SER222      0.2130
    145  OG        50.9380   31.8320    9.0900 O.3   222  SER222     -0.2179
    146  N         47.5270   34.8390    8.9460 N.am  223  ALA223     -0.1977
    147  CA        46.8300   36.0370    8.4910 C.3   223  ALA223      0.1597
    148  C         46.7810   37.1370    9.5720 C.2   223  ALA223      0.2287
    149  O         46.8690   38.3140    9.2670 O.2   223  ALA223     -0.2864
    150  CB        45.4120   35.6780    8.0380 C.3   223  ALA223      0.0319
@<TRIPOS>BOND
     1   113   112    2
     2   111   112    1
     3   111   110    1
     4   112   114   am
     5   102   101    2
     6   110   101   am
     7   114   115    1
     8   115   116    1
     9   115   118    1
    10   116   117    2
    11   101   100    1
    12   121   119    1
    13   106   108   ar
    14   106   104   ar
    15   103   100    1
    16   103   104    1
    17    94    93    2
    18   150   147    1
    19   120   118    1
    20   118   119    1
    21   108   109   ar
    22   100    99    1
    23    93    92    1
    24   147   146    1
    25   147   148    1
    26   104   105   ar
    27   144   145    1
    28   144   141    1
    29   146   142   am
    30   149   148    2
    31   143   142    2
    32   142   141    1
    33    36    35    1
    34    36    37    2
    35    35    34    1
    36    96    98    1
    37    96    95    1
    38    96    97    1
    39   109   107   ar
    40    92    95    1
    41    92    91    1
    42   105   107   ar
    43   141   140    1
    44   135   134    1
    45   140   138   am
    46    34    28   am
    47    29    28    2
    48   134   131    1
    49   125   124    2
    50    38    39    1
    51    28    27    1
    52   138   139    2
    53   138   137    1
    54   131   132    1
    55   131   130    1
    56   136   132   am
    57   136   137    1
    58    24    23    2
    59   124   130   am
    60   124   123    1
    61    43    45    1
    62    43    42    1
    63   132   133    2
    64    23    22    1
    65    23    26   am
    66    39    42    1
    67    39    40    1
    68    27    26    1
    69    27    30    1
    70    22    25    1
    71    22    21    1
    72   122   123    1
    73    42    44    1
    74    90    89    1
    75    87    89   ar
    76    87    85   ar
    77    40    41    2
    78    77    75    1
    79   123   126    1
    80    30    31    1
    81    89    88   ar
    82    85    84   ar
    83    82    81    2
    84   126   128    1
    85   126   127    1
    86    81    80    1
    87    73    74    2
    88    73    72    1
    89    75    76    1
    90    75    72    1
    91    78    76    1
    92    31    32   ar
    93    31    33   ar
    94    88    86   ar
    95    84    86   ar
    96    84    83    1
    97   127   129    1
    98    72    71    1
    99    80    83    1
   100    80    79    1
   101    65    64    1
   102     4     3    2
   103     7     9   ar
   104     7     6   ar
   105     5     6    1
   106     5     2    1
   107     1     2    1
   108     9    11   ar
   109     6     8   ar
   110     3     2    1
   111    69    68    2
   112    64    62   ar
   113    64    63   ar
   114    11    10   ar
   115    62    60   ar
   116     8    10   ar
   117    70    67    1
   118    68    67    1
   119    63    61   ar
   120    67    66    1
   121    53    51    1
   122    20    18   ar
   123    51    52    1
   124    51    50    1
   125    60    59   ar
   126    17    16    1
   127    17    18    1
   128    16    13    1
   129    61    59   ar
   130    18    19   ar
   131    59    58    1
   132    15    14    2
   133    50    47    1
   134    13    12    1
   135    13    14    1
   136    58    55    1
   137    47    48    1
   138    47    46    1
   139    55    54    1
   140    55    56    1
   141    48    49    2
   142    56    57    2
