@<TRIPOS>MOLECULE
tmp/1kfdA00.pdb
 147 139 0 0 0
SMALL
GASTEIGER

@<TRIPOS>ATOM
      1  N         58.0690   11.1870  103.9000 N.3   309  GLN309     -0.1245
      2  CA        58.3450    9.7840  103.7170 C.3   309  GLN309      0.1566
      3  C         59.2400    9.1760  104.7680 C.2   309  GLN309      0.2260
      4  O         59.1710    7.9680  105.0080 O.2   309  GLN309     -0.2867
      5  CB        58.9510    9.5890  102.3530 C.3   309  GLN309      0.0367
      6  CG        57.8990    9.9380  101.3200 C.3   309  GLN309      0.0905
      7  CD        58.2900    9.5350   99.9160 C.2   309  GLN309      0.2608
      8  OE1       57.5770    8.7560   99.2730 O.2   309  GLN309     -0.2717
      9  NE2       59.4170   10.0820   99.4380 N.am  309  GLN309     -0.0878
     10  N         59.1250    9.8500  108.0610 N.3   311  ILE311     -0.1245
     11  CA        58.6190    9.7300  109.4220 C.3   311  ILE311      0.1561
     12  C         58.2330    8.2510  109.5540 C.2   311  ILE311      0.2260
     13  O         57.6810    7.6440  108.6330 O.2   311  ILE311     -0.2867
     14  CB        57.3740   10.7340  109.7550 C.3   311  ILE311      0.0252
     15  CG1       56.0230   10.0600  109.7100 C.3   311  ILE311      0.0019
     16  CG2       57.3380   11.8870  108.7730 C.3   311  ILE311      0.0019
     17  CD1       55.5900    9.4610  111.0720 C.3   311  ILE311      0.0001
     18  N         56.5320    5.0690  109.8550 N.3   313  VAL313     -0.1231
     19  CA        55.2130    4.4770  109.6130 C.3   313  VAL313      0.1692
     20  C         54.7670    3.5080  110.7180 C.2   313  VAL313      0.2591
     21  O         53.6570    3.6070  111.2490 O.2   313  VAL313     -0.2718
     22  CB        55.2470    3.7820  108.1900 C.3   313  VAL313      0.0266
     23  CG1       56.4580    2.8470  108.0760 C.3   313  VAL313      0.0020
     24  CG2       53.9500    3.0010  107.9480 C.3   313  VAL313      0.0020
     25  N         55.5940    2.5260  111.0660 N.am  314  ARG314     -0.1980
     26  CA        55.2360    1.5990  112.1180 C.3   314  ARG314      0.1597
     27  C         56.2970    1.7940  113.1850 C.2   314  ARG314      0.2287
     28  O         57.4520    1.3840  113.0180 O.2   314  ARG314     -0.2864
     29  CB        55.2270    0.1650  111.5760 C.3   314  ARG314      0.0334
     30  CG        54.7040    0.0240  110.1400 C.3   314  ARG314      0.0492
     31  CD        53.2200   -0.3780  110.1960 C.3   314  ARG314      0.2205
     32  NE        52.4840   -0.1650  108.9520 N.pl3 314  ARG314     -0.0865
     33  CZ        51.2130   -0.5800  108.7760 C.cat 314  ARG314      0.5346
     34  NH1       50.5330   -1.2540  109.7150 N.pl3 314  ARG314      0.1354
     35  NH2       50.6080   -0.3230  107.6100 N.pl3 314  ARG314      0.1354
     36  N         46.5640   -0.4630   98.8430 N.3   339  SER339     -0.1202
     37  CA        47.0610   -1.6140   99.5920 C.3   339  SER339      0.2020
     38  C         48.3520   -2.2330   99.1290 C.2   339  SER339      0.2618
     39  O         49.3060   -1.4760   98.9910 O.2   339  SER339     -0.2717
     40  CB        46.0330   -2.7040   99.6560 C.3   339  SER339      0.2103
     41  OG        45.1290   -2.3330  100.6830 O.3   339  SER339     -0.2182
     42  N         48.5830   -3.5090   98.8230 N.am  340  GLN340     -0.1979
     43  CA        49.9820   -3.8290   98.5550 C.3   340  GLN340      0.1601
     44  C         50.2520   -3.6810   97.0870 C.2   340  GLN340      0.2287
     45  O         50.6300   -4.6200   96.4180 O.2   340  GLN340     -0.2864
     46  CB        50.3120   -5.2330   99.1110 C.3   340  GLN340      0.0394
     47  CG        49.3520   -6.3930   98.9390 C.3   340  GLN340      0.0908
     48  CD        48.3880   -6.5480  100.0980 C.2   340  GLN340      0.2608
     49  OE1       47.1860   -6.2320  100.0010 O.2   340  GLN340     -0.2717
     50  NE2       48.9380   -7.0370  101.2030 N.am  340  GLN340     -0.0878
     51  N         53.0250   -5.4200   95.1470 N.3   343  LEU343     -0.1245
     52  CA        52.8580   -6.8670   95.1790 C.3   343  LEU343      0.1561
     53  C         51.7260   -7.2190   94.2110 C.2   343  LEU343      0.2260
     54  O         51.7470   -8.2570   93.5550 O.2   343  LEU343     -0.2867
     55  CB        52.4920   -7.3130   96.5930 C.3   343  LEU343      0.0270
     56  CG        53.3160   -8.2370   97.5190 C.3   343  LEU343      0.0019
     57  CD1       54.7560   -8.3820   97.0610 C.3   343  LEU343      0.0001
     58  CD2       53.2930   -7.6410   98.9240 C.3   343  LEU343      0.0001
     59  N         44.7090  -12.6070  102.4880 N.3   364  ASP364     -0.1239
     60  CA        45.8910  -11.8930  102.9270 C.3   364  ASP364      0.1674
     61  C         46.9970  -12.5820  102.1630 C.2   364  ASP364      0.2266
     62  O         47.2620  -13.7660  102.4070 O.2   364  ASP364     -0.2867
     63  CB        46.1490  -12.0450  104.4320 C.3   364  ASP364      0.1410
     64  CG        47.4890  -11.4470  104.8720 C.2   364  ASP364      0.3668
     65  OD1       47.7080  -10.2400  104.7460 O.co2 364  ASP364     -0.2456
     66  OD2       48.3390  -12.2050  105.3240 O.co2 364  ASP364     -0.2456
     67  N         50.2160  -12.6220  102.3650 N.3   366  HIS366     -0.1241
     68  CA        51.3370  -13.2670  103.0380 C.3   366  HIS366      0.1621
     69  C         50.9820  -14.6160  103.6410 C.2   366  HIS366      0.2264
     70  O         51.8020  -15.5440  103.6630 O.2   366  HIS366     -0.2867
     71  CB        51.8570  -12.3400  104.0850 C.3   366  HIS366      0.0745
     72  CG        52.3140  -11.0300  103.4620 C.ar  366  HIS366      0.0817
     73  ND1       51.6650   -9.8880  103.5800 N.ar  366  HIS366     -0.2268
     74  CD2       53.4320  -10.8070  102.7110 C.ar  366  HIS366      0.1154
     75  CE1       52.3520   -8.9820  102.9320 C.ar  366  HIS366      0.1986
     76  NE2       53.4100   -9.5420  102.4140 N.ar  366  HIS366     -0.2212
     77  N         53.8330  -16.6480  108.2760 N.3   386  ARG386     -0.1245
     78  CA        53.3480  -15.4240  107.6350 C.3   386  ARG386      0.1563
     79  C         54.4660  -14.4030  107.4800 C.2   386  ARG386      0.2260
     80  O         54.5110  -13.6420  106.5160 O.2   386  ARG386     -0.2867
     81  CB        52.2660  -14.7380  108.4550 C.3   386  ARG386      0.0307
     82  CG        51.5840  -13.6490  107.6520 C.3   386  ARG386      0.0489
     83  CD        50.5150  -12.9340  108.4060 C.3   386  ARG386      0.2205
     84  NE        50.6130  -11.5630  107.9780 N.pl3 386  ARG386     -0.0865
     85  CZ        49.5780  -10.7340  108.0600 C.cat 386  ARG386      0.5346
     86  NH1       48.4040  -11.1150  108.5420 N.pl3 386  ARG386      0.1354
     87  NH2       49.7430   -9.4820  107.6650 N.pl3 386  ARG386      0.1354
     88  N         56.3860  -13.0780  104.1440 N.3   390  LYS390     -0.1245
     89  CA        56.4720  -11.6340  103.9560 C.3   390  LYS390      0.1561
     90  C         57.8820  -11.2550  103.5530 C.2   390  LYS390      0.2260
     91  O         58.0670  -10.4550  102.6350 O.2   390  LYS390     -0.2867
     92  CB        56.0810  -10.9290  105.2500 C.3   390  LYS390      0.0271
     93  CG        55.9160   -9.4350  105.1070 C.3   390  LYS390      0.0035
     94  CD        55.3500   -8.8600  106.3890 C.3   390  LYS390      0.0206
     95  CE        54.9020   -7.3960  106.2060 C.3   390  LYS390      0.1093
     96  NZ        54.1560   -6.8620  107.3480 N.3   390  LYS390     -0.1314
     97  N         58.5860   -9.2150  100.0070 N.3   394  PHE394     -0.1241
     98  CA        59.1890   -7.8980   99.9060 C.3   394  PHE394      0.1605
     99  C         60.6100   -7.9790   99.4100 C.2   394  PHE394      0.2264
    100  O         61.1980   -6.9810   99.0080 O.2   394  PHE394     -0.2867
    101  CB        59.1440   -7.1990  101.2530 C.3   394  PHE394      0.0534
    102  CG        57.7310   -6.6500  101.4080 C.ar  394  PHE394     -0.0203
    103  CD1       57.3950   -5.4320  100.8240 C.ar  394  PHE394     -0.0042
    104  CD2       56.7610   -7.3830  102.0760 C.ar  394  PHE394     -0.0042
    105  CE1       56.0990   -4.9620  100.9080 C.ar  394  PHE394     -0.0003
    106  CE2       55.4640   -6.9040  102.1540 C.ar  394  PHE394     -0.0003
    107  CZ        55.1350   -5.7000  101.5710 C.ar  394  PHE394     -0.0000
    108  N         62.2290   -5.9380   95.8680 N.3   398  TYR398     -0.1241
    109  CA        63.4980   -5.2340   95.7770 C.3   398  TYR398      0.1605
    110  C         64.5580   -6.0270   95.0420 C.2   398  TYR398      0.2264
    111  O         65.7310   -5.6660   95.0760 O.2   398  TYR398     -0.2867
    112  CB        63.9510   -4.8780   97.2050 C.3   398  TYR398      0.0534
    113  CG        62.8930   -4.0050   97.8790 C.ar  398  TYR398     -0.0201
    114  CD1       62.3960   -2.8890   97.2170 C.ar  398  TYR398     -0.0009
    115  CD2       62.3620   -4.3550   99.1110 C.ar  398  TYR398     -0.0009
    116  CE1       61.3720   -2.1410   97.7640 C.ar  398  TYR398      0.0417
    117  CE2       61.3300   -3.6100   99.6680 C.ar  398  TYR398      0.0417
    118  CZ        60.8420   -2.5070   98.9850 C.ar  398  TYR398      0.1957
    119  OH        59.7970   -1.7650   99.5080 O.3   398  TYR398     -0.2866
    120  N         54.3800    8.0000  100.0410 N.3   513  HIS513     -0.1226
    121  CA        54.4100    6.5730   99.6750 C.3   513  HIS513      0.1752
    122  C         53.2480    6.1980   98.7250 C.2   513  HIS513      0.2596
    123  O         53.2100    6.7330   97.6200 O.2   513  HIS513     -0.2718
    124  CB        54.3340    5.6470  100.9170 C.3   513  HIS513      0.0759
    125  CG        55.3300    5.8720  102.0560 C.ar  513  HIS513      0.0818
    126  ND1       56.6550    5.8560  101.9310 N.ar  513  HIS513     -0.2268
    127  CD2       55.0130    6.1280  103.3760 C.ar  513  HIS513      0.1154
    128  CE1       57.1540    6.0960  103.1210 C.ar  513  HIS513      0.1986
    129  NE2       56.1640    6.2590  103.9780 N.ar  513  HIS513     -0.2212
    130  N         52.2540    5.3760   99.0920 N.am  514  ASP514     -0.1974
    131  CA        51.1820    4.9990   98.1740 C.3   514  ASP514      0.1709
    132  C         49.8730    5.5700   98.6800 C.2   514  ASP514      0.2293
    133  O         48.8020    4.9980   98.4800 O.2   514  ASP514     -0.2864
    134  CB        51.0360    3.4910   98.1010 C.3   514  ASP514      0.1436
    135  CG        52.3110    2.6950   97.9000 C.2   514  ASP514      0.3671
    136  OD1       53.2080    3.1290   97.1860 O.co2 514  ASP514     -0.2456
    137  OD2       52.4040    1.6070   98.4560 O.co2 514  ASP514     -0.2456
    138  N         44.9660    7.1640  109.0250 N.3   560  HIS560     -0.1241
    139  CA        45.7850    6.0480  108.6030 C.3   560  HIS560      0.1621
    140  C         45.3580    4.8130  109.4190 C.2   560  HIS560      0.2264
    141  O         46.0610    3.8000  109.5410 O.2   560  HIS560     -0.2867
    142  CB        47.2170    6.4680  108.8700 C.3   560  HIS560      0.0745
    143  CG        48.2580    5.9620  107.9010 C.ar  560  HIS560      0.0817
    144  ND1       49.5570    6.0130  108.1660 N.ar  560  HIS560     -0.2268
    145  CD2       48.0740    5.4290  106.6450 C.ar  560  HIS560      0.1154
    146  CE1       50.1870    5.5340  107.1170 C.ar  560  HIS560      0.1986
    147  NE2       49.2900    5.1860  106.2100 N.ar  560  HIS560     -0.2212
@<TRIPOS>BOND
     1    54    53    2
     2    53    52    1
     3   110   111    2
     4   110   109    1
     5    51    52    1
     6    52    55    1
     7   109   108    1
     8   109   112    1
     9    45    44    2
    10    55    56    1
    11    57    56    1
    12    44    43    1
    13   136   135   ar
    14   112   113    1
    15   114   116   ar
    16   114   113   ar
    17    56    58    1
    18   123   122    2
    19   116   118   ar
    20   113   115   ar
    21   135   134    1
    22   135   137   ar
    23   134   131    1
    24   131   132    1
    25   131   130    1
    26   133   132    2
    27    43    42    1
    28    43    46    1
    29   122   130   am
    30   122   121    1
    31    42    38   am
    32    36    37    1
    33    47    46    1
    34    47    48    1
    35   118   119    1
    36   118   117   ar
    37    39    38    2
    38   100    99    2
    39   115   117   ar
    40    38    37    1
    41     8     7    2
    42    99    98    1
    43     9     7   am
    44    37    40    1
    45    40    41    1
    46   121   120    1
    47   121   124    1
    48    98    97    1
    49    98   101    1
    50     7     6    1
    51    49    48    2
    52    48    50   am
    53   103   105   ar
    54   103   102   ar
    55   105   107   ar
    56   124   125    1
    57   101   102    1
    58     6     5    1
    59   102   104   ar
    60   107   106   ar
    61   126   125   ar
    62   126   128   ar
    63   125   127   ar
    64   104   106   ar
    65    61    62    2
    66    61    60    1
    67     5     2    1
    68    67    68    1
    69    76    74   ar
    70    76    75   ar
    71    59    60    1
    72    91    90    2
    73    74    72   ar
    74    60    63    1
    75    75    73   ar
    76    68    69    1
    77    68    71    1
    78   128   129   ar
    79   127   129   ar
    80    72    73   ar
    81    72    71    1
    82    90    89    1
    83    69    70    2
    84     2     1    1
    85     2     3    1
    86    89    88    1
    87    89    92    1
    88    63    64    1
    89    65    64   ar
    90     3     4    2
    91    64    66   ar
    92    93    92    1
    93    93    94    1
    94    95    94    1
    95    95    96    1
    96   147   145   ar
    97   147   146   ar
    98    80    79    2
    99   145   143   ar
   100   146   144   ar
   101    79    78    1
   102    35    33    1
   103    78    77    1
   104    78    81    1
   105    82    83    1
   106    82    81    1
   107    87    85    1
   108   143   144   ar
   109   143   142    1
   110    24    22    1
   111    84    85    2
   112    84    83    1
   113    85    86    1
   114    10    11    1
   115    23    22    1
   116    22    19    1
   117   139   142    1
   118   139   138    1
   119   139   140    1
   120    13    12    2
   121    16    14    1
   122    33    32    2
   123    33    34    1
   124    32    31    1
   125   140   141    2
   126    11    12    1
   127    11    14    1
   128    19    18    1
   129    19    20    1
   130    15    14    1
   131    15    17    1
   132    30    31    1
   133    30    29    1
   134    20    25   am
   135    20    21    2
   136    25    26    1
   137    29    26    1
   138    26    27    1
   139    28    27    2
