@<TRIPOS>MOLECULE
tmp/1kfgB00.pdb
 143 143 0 0 0
SMALL
GASTEIGER

@<TRIPOS>ATOM
      1  N         13.6240   10.0460   14.7940 N.3   207  SER207     -0.1202
      2  CA        13.9910   10.9650   15.8620 C.3   207  SER207      0.2020
      3  C         14.3120   10.1970   17.1400 C.2   207  SER207      0.2619
      4  O         14.5470   10.8040   18.1840 O.2   207  SER207     -0.2717
      5  CB        12.8530   11.9440   16.1380 C.3   207  SER207      0.2103
      6  OG        11.7240   11.2630   16.6540 O.3   207  SER207     -0.2182
      7  N         14.3350    8.8690   17.0660 N.am  208  SER208     -0.1951
      8  CA        14.6090    8.0710   18.2640 C.3   208  SER208      0.1924
      9  C         14.7750    6.5940   17.9360 C.2   208  SER208      0.2314
     10  O         14.1320    6.0940   17.0080 O.2   208  SER208     -0.2863
     11  CB        13.4470    8.2180   19.2530 C.3   208  SER208      0.2116
     12  OG        12.2420    7.7230   18.6670 O.3   208  SER208     -0.2180
     13  N          9.7550   14.3930   29.1090 N.3   243  GLU243     -0.1245
     14  CA         8.9790   15.6150   28.9450 C.3   243  GLU243      0.1567
     15  C          9.8800   16.8080   29.2110 C.2   243  GLU243      0.2260
     16  O         10.4780   16.9140   30.2770 O.2   243  GLU243     -0.2867
     17  CB         7.7820   15.6380   29.8950 C.3   243  GLU243      0.0388
     18  CG         6.6280   14.8040   29.3930 C.3   243  GLU243      0.1160
     19  CD         6.1740   15.2420   28.0130 C.2   243  GLU243      0.3649
     20  OE1        5.7180   14.3880   27.2260 O.co2 243  GLU243     -0.2457
     21  OE2        6.2700   16.4470   27.7180 O.co2 243  GLU243     -0.2457
     22  N          8.4250   10.8600   28.4370 N.3   250  ALA250     -0.1245
     23  CA         7.4780   11.5720   27.5770 C.3   250  ALA250      0.1562
     24  C          6.0950   10.9350   27.5960 C.2   250  ALA250      0.2260
     25  O          5.9620    9.7050   27.6100 O.2   250  ALA250     -0.2867
     26  CB         8.0070   11.6280   26.1360 C.3   250  ALA250      0.0290
     27  N          3.1960   13.2090   26.2000 N.3   252  LYS252     -0.1231
     28  CA         2.2810   14.0830   25.4670 C.3   252  LYS252      0.1693
     29  C          2.1300   13.8280   23.9680 C.2   252  LYS252      0.2592
     30  O          1.6250   14.6870   23.2350 O.2   252  LYS252     -0.2718
     31  CB         2.6470   15.5510   25.6970 C.3   252  LYS252      0.0285
     32  CG         2.3670   16.0510   27.1080 C.3   252  LYS252      0.0035
     33  CD         2.7920   17.5050   27.2550 C.3   252  LYS252      0.0206
     34  CE         2.6200   18.0010   28.6760 C.3   252  LYS252      0.1093
     35  NZ         3.1060   19.4160   28.7910 N.3   252  LYS252     -0.1314
     36  N          2.5460   12.6500   23.5130 N.am  253  TRP253     -0.1976
     37  CA         2.4100   12.3060   22.0970 C.3   253  TRP253      0.1640
     38  C          1.6410   10.9800   22.0620 C.2   253  TRP253      0.2290
     39  O          0.7860   10.7430   22.9120 O.2   253  TRP253     -0.2864
     40  CB         3.7940   12.1640   21.4400 C.3   253  TRP253      0.0576
     41  CG         3.7930   12.3790   19.9430 C.ar  253  TRP253      0.0006
     42  CD1        4.0310   11.4440   18.9750 C.ar  253  TRP253      0.0946
     43  CD2        3.5330   13.6100   19.2560 C.ar  253  TRP253      0.0152
     44  NE1        3.9340   12.0160   17.7280 N.ar  253  TRP253     -0.2442
     45  CE2        3.6280   13.3450   17.8700 C.ar  253  TRP253      0.0810
     46  CE3        3.2290   14.9170   19.6790 C.ar  253  TRP253      0.0012
     47  CZ2        3.4260   14.3360   16.8980 C.ar  253  TRP253      0.0191
     48  CZ3        3.0270   15.9090   18.7110 C.ar  253  TRP253      0.0001
     49  CH2        3.1280   15.6090   17.3360 C.ar  253  TRP253      0.0015
     50  N          3.3240    5.6590   17.4320 N.3   256  CYS256     -0.1221
     51  CA         3.3840    5.8880   15.9880 C.3   256  CYS256      0.1808
     52  C          4.6700    5.2870   15.4240 C.2   256  CYS256      0.2601
     53  O          5.5280    4.8040   16.1760 O.2   256  CYS256     -0.2717
     54  CB         3.3040    7.3820   15.6510 C.3   256  CYS256      0.0970
     55  SG         4.6950    8.3680   16.2900 S.3   256  CYS256     -0.0800
     56  N          4.8010    5.3130   14.1030 N.am  257  TRP257     -0.1962
     57  CA         5.9730    4.7320   13.4480 C.3   257  TRP257      0.1771
     58  C          7.3110    5.2530   13.9740 C.2   257  TRP257      0.2620
     59  O          8.3030    4.5210   13.9820 O.2   257  TRP257     -0.2715
     60  CB         5.9120    4.9650   11.9300 C.3   257  TRP257      0.0590
     61  CG         5.9520    6.4220   11.5360 C.ar  257  TRP257      0.0006
     62  CD1        4.8820    7.2520   11.3390 C.ar  257  TRP257      0.0946
     63  CD2        7.1270    7.2270   11.3410 C.ar  257  TRP257      0.0152
     64  NE1        5.3230    8.5270   11.0360 N.ar  257  TRP257     -0.2442
     65  CE2        6.6930    8.5360   11.0350 C.ar  257  TRP257      0.0810
     66  CE3        8.5070    6.9670   11.3990 C.ar  257  TRP257      0.0012
     67  CZ2        7.5940    9.5910   10.7910 C.ar  257  TRP257      0.0191
     68  CZ3        9.4020    8.0170   11.1550 C.ar  257  TRP257      0.0001
     69  CH2        8.9380    9.3100   10.8570 C.ar  257  TRP257      0.0015
     70  N          7.3270    6.4990   14.4390 N.am  258  ASP258     -0.1957
     71  CA         8.5610    7.1350   14.9210 C.3   258  ASP258      0.1840
     72  C          8.7540    7.0290   16.4340 C.2   258  ASP258      0.2622
     73  O          9.8720    7.2100   16.9370 O.2   258  ASP258     -0.2715
     74  CB         8.5480    8.6140   14.4930 C.3   258  ASP258      0.1450
     75  CG         9.8690    9.3410   14.7690 C.2   258  ASP258      0.3671
     76  OD1       10.9640    8.7870   14.5230 O.co2 258  ASP258     -0.2456
     77  OD2        9.7970   10.5000   15.2160 O.co2 258  ASP258     -0.2456
     78  N          7.6760    6.7200   17.1510 N.am  259  ASP259     -0.1971
     79  CA         7.7330    6.6250   18.6130 C.3   259  ASP259      0.1709
     80  C          6.9120    5.4630   19.1580 C.2   259  ASP259      0.2293
     81  O          5.6930    5.5500   19.2920 O.2   259  ASP259     -0.2864
     82  CB         7.2420    7.9380   19.2350 C.3   259  ASP259      0.1436
     83  CG         7.5110    8.0160   20.7320 C.2   259  ASP259      0.3671
     84  OD1        7.3920    9.1300   21.2930 O.co2 259  ASP259     -0.2456
     85  OD2        7.8280    6.9710   21.3490 O.co2 259  ASP259     -0.2456
     86  N          5.4210    4.0770   23.8210 N.3   262  TYR262     -0.1241
     87  CA         4.1060    3.9610   24.4370 C.3   262  TYR262      0.1605
     88  C          3.6690    2.4930   24.4160 C.2   262  TYR262      0.2264
     89  O          3.1790    1.9630   25.4180 O.2   262  TYR262     -0.2867
     90  CB         3.0830    4.8390   23.7000 C.3   262  TYR262      0.0534
     91  CG         3.3910    6.3180   23.8060 C.ar  262  TYR262     -0.0201
     92  CD1        3.9750    7.0090   22.7500 C.ar  262  TYR262     -0.0009
     93  CD2        3.1500    7.0100   24.9910 C.ar  262  TYR262     -0.0009
     94  CE1        4.3140    8.3580   22.8700 C.ar  262  TYR262      0.0417
     95  CE2        3.4830    8.3510   25.1260 C.ar  262  TYR262      0.0417
     96  CZ         4.0650    9.0220   24.0650 C.ar  262  TYR262      0.1957
     97  OH         4.3910   10.3550   24.1990 O.3   262  TYR262     -0.2866
     98  N         -2.3300   16.6340   16.2640 N.3   308  PHE308     -0.1241
     99  CA        -1.8220   17.6810   15.3930 C.3   308  PHE308      0.1605
    100  C         -2.2740   17.4810   13.9500 C.2   308  PHE308      0.2264
    101  O         -2.9650   16.5120   13.6360 O.2   308  PHE308     -0.2867
    102  CB        -0.2880   17.8460   15.5240 C.3   308  PHE308      0.0534
    103  CG         0.5270   16.8880   14.7090 C.ar  308  PHE308     -0.0203
    104  CD1        1.6270   17.3580   13.9910 C.ar  308  PHE308     -0.0042
    105  CD2        0.2230   15.5320   14.6650 C.ar  308  PHE308     -0.0042
    106  CE1        2.4140   16.4960   13.2330 C.ar  308  PHE308     -0.0003
    107  CE2        1.0110   14.6550   13.9050 C.ar  308  PHE308     -0.0003
    108  CZ         2.1060   15.1430   13.1890 C.ar  308  PHE308     -0.0000
    109  N         -1.0110   16.4940   10.9130 N.3   310  TRP310     -0.1241
    110  CA        -0.7880   15.3170   10.0800 C.3   310  TRP310      0.1605
    111  C         -1.3340   14.0130   10.6560 C.2   310  TRP310      0.2264
    112  O         -0.9560   13.5860   11.7520 O.2   310  TRP310     -0.2867
    113  CB         0.7130   15.1760    9.7740 C.3   310  TRP310      0.0550
    114  CG         1.2970   16.2220    8.8940 C.ar  310  TRP310      0.0003
    115  CD1        0.7100   17.3680    8.4440 C.ar  310  TRP310      0.0946
    116  CD2        2.5710   16.2110    8.2940 C.ar  310  TRP310      0.0152
    117  NE1        1.5830   18.0760    7.6460 N.ar  310  TRP310     -0.2442
    118  CE2        2.7240   17.3640    7.5230 C.ar  310  TRP310      0.0810
    119  CE3        3.5780   15.2410    8.3060 C.ar  310  TRP310      0.0012
    120  CZ2        3.8720   17.6340    6.8250 C.ar  310  TRP310      0.0191
    121  CZ3        4.7230   15.5350    7.6020 C.ar  310  TRP310      0.0001
    122  CH2        4.8460   16.6790    6.8560 C.ar  310  TRP310      0.0015
    123  N         -5.1350    8.9470   12.4020 N.3   314  ARG314     -0.1231
    124  CA        -4.1100    7.9310   12.6350 C.3   314  ARG314      0.1694
    125  C         -3.7130    7.9300   14.1170 C.2   314  ARG314      0.2592
    126  O         -3.6810    6.8800   14.7740 O.2   314  ARG314     -0.2718
    127  CB        -2.8810    8.2370   11.7400 C.3   314  ARG314      0.0321
    128  CG        -1.5730    7.5040   12.0690 C.3   314  ARG314      0.0489
    129  CD        -0.6450    8.3600   12.9460 C.3   314  ARG314      0.2205
    130  NE        -0.3770    9.7000   12.3950 N.pl3 314  ARG314     -0.0865
    131  CZ         0.5720   10.0030   11.5070 C.cat 314  ARG314      0.5346
    132  NH1        1.3840    9.0690   11.0270 N.pl3 314  ARG314      0.1354
    133  NH2        0.7210   11.2640   11.1040 N.pl3 314  ARG314      0.1354
    134  N         -3.4140    9.1110   14.6510 N.am  315  HIS315     -0.1976
    135  CA        -3.0160    9.1980   16.0560 C.3   315  HIS315      0.1656
    136  C         -4.1360    8.8590   17.0290 C.2   315  HIS315      0.2291
    137  O         -3.9190    8.1200   17.9980 O.2   315  HIS315     -0.2864
    138  CB        -2.4450   10.5860   16.3720 C.3   315  HIS315      0.0771
    139  CG        -1.0270   10.7680   15.9240 C.ar  315  HIS315      0.0820
    140  ND1        0.0180   10.0430   16.4530 N.ar  315  HIS315     -0.2267
    141  CD2       -0.4870   11.5690   14.9740 C.ar  315  HIS315      0.1154
    142  CE1        1.1430   10.3840   15.8490 C.ar  315  HIS315      0.1986
    143  NE2        0.8640   11.3090   14.9460 N.ar  315  HIS315     -0.2212
@<TRIPOS>BOND
     1   120   122   ar
     2   120   118   ar
     3   122   121   ar
     4   118   117   ar
     5   118   116   ar
     6   121   119   ar
     7   117   115   ar
     8   116   119   ar
     9   116   114   ar
    10   115   114   ar
    11   114   113    1
    12   113   110    1
    13   110   111    1
    14   110   109    1
    15   111   112    2
    16    67    69   ar
    17    67    65   ar
    18    69    68   ar
    19   132   131    1
    20    65    64   ar
    21    65    63   ar
    22    64    62   ar
    23   133   131    1
    24    68    66   ar
    25    62    61   ar
    26    63    66   ar
    27    63    61   ar
    28   131   130    2
    29    61    60    1
    30   127   128    1
    31   127   124    1
    32    60    57    1
    33   128   129    1
    34   130   129    1
    35   123   124    1
    36   124   125    1
    37   108   106   ar
    38   108   107   ar
    39   106   104   ar
    40    57    58    1
    41    57    56    1
    42   101   100    2
    43   107   105   ar
    44   100    99    1
    45    58    59    2
    46    58    70   am
    47   104   103   ar
    48    56    52   am
    49   125   134   am
    50   125   126    2
    51    70    71    1
    52    74    75    1
    53    74    71    1
    54    76    75   ar
    55   134   135    1
    56   105   103   ar
    57   103   102    1
    58    75    77   ar
    59     1     2    1
    60    71    72    1
    61   143   141   ar
    62   143   142   ar
    63   141   139   ar
    64    99   102    1
    65    99    98    1
    66    52    51    1
    67    52    53    2
    68    54    51    1
    69    54    55    1
    70   142   140   ar
    71     2     5    1
    72     2     3    1
    73   139   138    1
    74   139   140   ar
    75    51    50    1
    76   135   138    1
    77   135   136    1
    78     5     6    1
    79    72    73    2
    80    72    78   am
    81    47    49   ar
    82    47    45   ar
    83    10     9    2
    84   136   137    2
    85     7     3   am
    86     7     8    1
    87     3     4    2
    88    78    79    1
    89    49    48   ar
    90    44    45   ar
    91    44    42   ar
    92    45    43   ar
    93     9     8    1
    94     8    11    1
    95    79    80    1
    96    79    82    1
    97    12    11    1
    98    48    46   ar
    99    42    41   ar
   100    80    81    2
   101    82    83    1
   102    43    46   ar
   103    43    41   ar
   104    41    40    1
   105    83    84   ar
   106    83    85   ar
   107    40    37    1
   108    38    37    1
   109    38    39    2
   110    37    36    1
   111    92    94   ar
   112    92    91   ar
   113    94    96   ar
   114    30    29    2
   115    36    29   am
   116    90    91    1
   117    90    87    1
   118    91    93   ar
   119    86    87    1
   120    29    28    1
   121    96    97    1
   122    96    95   ar
   123    88    87    1
   124    88    89    2
   125    93    95   ar
   126    28    31    1
   127    28    27    1
   128    31    32    1
   129    26    23    1
   130    32    33    1
   131    20    19   ar
   132    33    34    1
   133    23    24    1
   134    23    22    1
   135    24    25    2
   136    21    19   ar
   137    19    18    1
   138    34    35    1
   139    14    13    1
   140    14    15    1
   141    14    17    1
   142    15    16    2
   143    18    17    1
