@<TRIPOS>MOLECULE
tmp/1kfgB01.pdb
 195 194 0 0 0
SMALL
GASTEIGER

@<TRIPOS>ATOM
      1  N          4.2720    2.2280    0.7430 N.3    54  ASP54      -0.1225
      2  CA         3.9440    3.0050    1.9300 C.3    54  ASP54       0.1805
      3  C          2.6110    3.7240    2.0160 C.2    54  ASP54       0.2598
      4  O          1.8380    3.4950    2.9390 O.2    54  ASP54      -0.2718
      5  CB         5.0410    4.0260    2.2290 C.3    54  ASP54       0.1424
      6  CG         4.7960    4.7510    3.5340 C.2    54  ASP54       0.3668
      7  OD1        4.8650    4.0870    4.5920 O.co2  54  ASP54      -0.2456
      8  OD2        4.5140    5.9690    3.5050 O.co2  54  ASP54      -0.2456
      9  N          2.3410    4.6020    1.0600 N.am   55  ALA55      -0.1966
     10  CA         1.1220    5.3860    1.0970 C.3    55  ALA55       0.1728
     11  C          0.4450    5.4260   -0.2700 C.2    55  ALA55       0.2617
     12  O          0.0050    4.3960   -0.7770 O.2    55  ALA55      -0.2715
     13  CB         1.4650    6.7950    1.5720 C.3    55  ALA55       0.0334
     14  N          0.3600    6.6190   -0.8470 N.am   56  GLY56      -0.1940
     15  CA        -0.2520    6.7830   -2.1550 C.3    56  GLY56       0.2014
     16  C          0.8250    6.7480   -3.2150 C.2    56  GLY56       0.2638
     17  O          0.5850    7.0600   -4.3880 O.2    56  GLY56      -0.2714
     18  N          2.0190    6.3600   -2.7740 N.am   57  ASP57      -0.1971
     19  CA         3.2030    6.2700   -3.6240 C.3    57  ASP57       0.1709
     20  C          3.6450    4.8150   -3.7420 C.2    57  ASP57       0.2293
     21  O          2.9440    3.9140   -3.2920 O.2    57  ASP57      -0.2864
     22  CB         4.3320    7.1110   -3.0130 C.3    57  ASP57       0.1436
     23  CG         4.6820    6.6680   -1.6010 C.2    57  ASP57       0.3671
     24  OD1        5.7070    7.1320   -1.0540 O.co2  57  ASP57      -0.2456
     25  OD2        3.9270    5.8590   -1.0280 O.co2  57  ASP57      -0.2456
     26  N          9.1730    1.9090    2.3620 N.3    61  PHE61      -0.1241
     27  CA         9.8660    2.5110    3.5170 C.3    61  PHE61       0.1605
     28  C          9.7470    1.5210    4.6770 C.2    61  PHE61       0.2264
     29  O          8.7000    1.4350    5.3210 O.2    61  PHE61      -0.2867
     30  CB         9.1810    3.8280    3.9160 C.3    61  PHE61       0.0534
     31  CG         9.4430    4.9840    2.9730 C.ar   61  PHE61      -0.0203
     32  CD1       10.7170    5.5290    2.8560 C.ar   61  PHE61      -0.0042
     33  CD2        8.3960    5.5820    2.2690 C.ar   61  PHE61      -0.0042
     34  CE1       10.9470    6.6580    2.0580 C.ar   61  PHE61      -0.0003
     35  CE2        8.6160    6.7080    1.4670 C.ar   61  PHE61      -0.0003
     36  CZ         9.8920    7.2480    1.3610 C.ar   61  PHE61      -0.0000
     37  N          7.8890    9.8320   -6.5210 N.3   124  HIS124     -0.1241
     38  CA         6.8110   10.8090   -6.4220 C.3   124  HIS124      0.1621
     39  C          6.6290   11.7060   -7.6360 C.2   124  HIS124      0.2264
     40  O          5.5770   12.3350   -7.7900 O.2   124  HIS124     -0.2867
     41  CB         7.0100   11.6580   -5.1630 C.3   124  HIS124      0.0745
     42  CG         6.9450   10.8600   -3.8990 C.ar  124  HIS124      0.0817
     43  ND1        7.0960   11.4230   -2.6500 N.ar  124  HIS124     -0.2268
     44  CD2        6.7390    9.5360   -3.6960 C.ar  124  HIS124      0.1154
     45  CE1        6.9840   10.4800   -1.7320 C.ar  124  HIS124      0.1986
     46  NE2        6.7680    9.3260   -2.3420 N.ar  124  HIS124     -0.2212
     47  N         13.3700   13.1130    5.4730 N.3   202  GLY202     -0.1210
     48  CA        12.3170   13.9900    4.9910 C.3   202  GLY202      0.1956
     49  C         11.0110   13.2540    4.7420 C.2   202  GLY202      0.2612
     50  O          9.9670   13.8780    4.5330 O.2   202  GLY202     -0.2717
     51  N         11.0750   11.9270    4.7430 N.am  203  TYR203     -0.1962
     52  CA         9.8840   11.1060    4.5460 C.3   203  TYR203      0.1771
     53  C          9.5940   10.4180    5.8720 C.2   203  TYR203      0.2620
     54  O          8.5080   10.5650    6.4500 O.2   203  TYR203     -0.2715
     55  CB        10.1250   10.0640    3.4480 C.3   203  TYR203      0.0574
     56  CG        10.4750   10.6840    2.1040 C.ar  203  TYR203     -0.0198
     57  CD1       11.7910   10.7190    1.6520 C.ar  203  TYR203     -0.0009
     58  CD2        9.4850   11.2580    1.3010 C.ar  203  TYR203     -0.0009
     59  CE1       12.1200   11.3070    0.4260 C.ar  203  TYR203      0.0417
     60  CE2        9.8020   11.8530    0.0690 C.ar  203  TYR203      0.0417
     61  CZ        11.1150   11.8700   -0.3580 C.ar  203  TYR203      0.1957
     62  OH        11.4230   12.4230   -1.5710 O.3   203  TYR203     -0.2866
     63  N         10.5830    9.6780    6.3590 N.am  204  TYR204     -0.1960
     64  CA        10.4410    8.9770    7.6200 C.3   204  TYR204      0.1771
     65  C         11.7170    9.0620    8.4540 C.2   204  TYR204      0.2620
     66  O         12.2430    8.0540    8.9080 O.2   204  TYR204     -0.2715
     67  CB        10.0380    7.5230    7.3640 C.3   204  TYR204      0.0574
     68  CG         8.5990    7.4080    6.8790 C.ar  204  TYR204     -0.0198
     69  CD1        7.5340    7.5290    7.7770 C.ar  204  TYR204     -0.0009
     70  CD2        8.3030    7.2400    5.5240 C.ar  204  TYR204     -0.0009
     71  CE1        6.2190    7.4890    7.3540 C.ar  204  TYR204      0.0417
     72  CE2        6.9780    7.1980    5.0840 C.ar  204  TYR204      0.0417
     73  CZ         5.9380    7.3250    6.0020 C.ar  204  TYR204      0.1957
     74  OH         4.6200    7.2960    5.5910 O.3   204  TYR204     -0.2866
     75  N         12.2140   10.2840    8.6330 N.am  205  SER205     -0.1950
     76  CA        13.4100   10.5140    9.4460 C.3   205  SER205      0.1924
     77  C         13.1410    9.9360   10.8340 C.2   205  SER205      0.2314
     78  O         12.0190   10.0370   11.3510 O.2   205  SER205     -0.2863
     79  CB        13.6950   12.0180    9.5800 C.3   205  SER205      0.2116
     80  OG        13.9730   12.6110    8.3230 O.3   205  SER205     -0.2180
     81  N          4.8010    5.3130   14.1030 N.3   257  TRP257     -0.1241
     82  CA         5.9730    4.7320   13.4480 C.3   257  TRP257      0.1605
     83  C          7.3110    5.2530   13.9740 C.2   257  TRP257      0.2264
     84  O          8.3030    4.5210   13.9820 O.2   257  TRP257     -0.2867
     85  CB         5.9120    4.9650   11.9300 C.3   257  TRP257      0.0550
     86  CG         5.9520    6.4220   11.5360 C.ar  257  TRP257      0.0003
     87  CD1        4.8820    7.2520   11.3390 C.ar  257  TRP257      0.0946
     88  CD2        7.1270    7.2270   11.3410 C.ar  257  TRP257      0.0152
     89  NE1        5.3230    8.5270   11.0360 N.ar  257  TRP257     -0.2442
     90  CE2        6.6930    8.5360   11.0350 C.ar  257  TRP257      0.0810
     91  CE3        8.5070    6.9670   11.3990 C.ar  257  TRP257      0.0012
     92  CZ2        7.5940    9.5910   10.7910 C.ar  257  TRP257      0.0191
     93  CZ3        9.4020    8.0170   11.1550 C.ar  257  TRP257      0.0001
     94  CH2        8.9380    9.3100   10.8570 C.ar  257  TRP257      0.0015
     95  N         -2.3300   16.6340   16.2640 N.3   308  PHE308     -0.1241
     96  CA        -1.8220   17.6810   15.3930 C.3   308  PHE308      0.1605
     97  C         -2.2740   17.4810   13.9500 C.2   308  PHE308      0.2264
     98  O         -2.9650   16.5120   13.6360 O.2   308  PHE308     -0.2867
     99  CB        -0.2880   17.8460   15.5240 C.3   308  PHE308      0.0534
    100  CG         0.5270   16.8880   14.7090 C.ar  308  PHE308     -0.0203
    101  CD1        1.6270   17.3580   13.9910 C.ar  308  PHE308     -0.0042
    102  CD2        0.2230   15.5320   14.6650 C.ar  308  PHE308     -0.0042
    103  CE1        2.4140   16.4960   13.2330 C.ar  308  PHE308     -0.0003
    104  CE2        1.0110   14.6550   13.9050 C.ar  308  PHE308     -0.0003
    105  CZ         2.1060   15.1430   13.1890 C.ar  308  PHE308     -0.0000
    106  N         -1.0110   16.4940   10.9130 N.3   310  TRP310     -0.1241
    107  CA        -0.7880   15.3170   10.0800 C.3   310  TRP310      0.1605
    108  C         -1.3340   14.0130   10.6560 C.2   310  TRP310      0.2264
    109  O         -0.9560   13.5860   11.7520 O.2   310  TRP310     -0.2867
    110  CB         0.7130   15.1760    9.7740 C.3   310  TRP310      0.0550
    111  CG         1.2970   16.2220    8.8940 C.ar  310  TRP310      0.0003
    112  CD1        0.7100   17.3680    8.4440 C.ar  310  TRP310      0.0946
    113  CD2        2.5710   16.2110    8.2940 C.ar  310  TRP310      0.0152
    114  NE1        1.5830   18.0760    7.6460 N.ar  310  TRP310     -0.2442
    115  CE2        2.7240   17.3640    7.5230 C.ar  310  TRP310      0.0810
    116  CE3        3.5780   15.2410    8.3060 C.ar  310  TRP310      0.0012
    117  CZ2        3.8720   17.6340    6.8250 C.ar  310  TRP310      0.0191
    118  CZ3        4.7230   15.5350    7.6020 C.ar  310  TRP310      0.0001
    119  CH2        4.8460   16.6790    6.8560 C.ar  310  TRP310      0.0015
    120  N         -5.1350    8.9470   12.4020 N.3   314  ARG314     -0.1231
    121  CA        -4.1100    7.9310   12.6350 C.3   314  ARG314      0.1694
    122  C         -3.7130    7.9300   14.1170 C.2   314  ARG314      0.2592
    123  O         -3.6810    6.8800   14.7740 O.2   314  ARG314     -0.2718
    124  CB        -2.8810    8.2370   11.7400 C.3   314  ARG314      0.0321
    125  CG        -1.5730    7.5040   12.0690 C.3   314  ARG314      0.0489
    126  CD        -0.6450    8.3600   12.9460 C.3   314  ARG314      0.2205
    127  NE        -0.3770    9.7000   12.3950 N.pl3 314  ARG314     -0.0865
    128  CZ         0.5720   10.0030   11.5070 C.cat 314  ARG314      0.5346
    129  NH1        1.3840    9.0690   11.0270 N.pl3 314  ARG314      0.1354
    130  NH2        0.7210   11.2640   11.1040 N.pl3 314  ARG314      0.1354
    131  N         -3.4140    9.1110   14.6510 N.am  315  HIS315     -0.1976
    132  CA        -3.0160    9.1980   16.0560 C.3   315  HIS315      0.1656
    133  C         -4.1360    8.8590   17.0290 C.2   315  HIS315      0.2291
    134  O         -3.9190    8.1200   17.9980 O.2   315  HIS315     -0.2864
    135  CB        -2.4450   10.5860   16.3720 C.3   315  HIS315      0.0771
    136  CG        -1.0270   10.7680   15.9240 C.ar  315  HIS315      0.0820
    137  ND1        0.0180   10.0430   16.4530 N.ar  315  HIS315     -0.2267
    138  CD2       -0.4870   11.5690   14.9740 C.ar  315  HIS315      0.1154
    139  CE1        1.1430   10.3840   15.8490 C.ar  315  HIS315      0.1986
    140  NE2        0.8640   11.3090   14.9460 N.ar  315  HIS315     -0.2212
    141  N         -5.5850   10.4160   -1.5860 N.3   372  HIS372     -0.1241
    142  CA        -4.3410   10.6630   -2.3090 C.3   372  HIS372      0.1621
    143  C         -3.6390    9.3200   -2.5320 C.2   372  HIS372      0.2264
    144  O         -2.8310    8.8880   -1.7080 O.2   372  HIS372     -0.2867
    145  CB        -3.4590   11.6100   -1.4860 C.3   372  HIS372      0.0745
    146  CG        -2.2640   12.1220   -2.2280 C.ar  372  HIS372      0.0817
    147  ND1       -2.3360   13.1620   -3.1280 N.ar  372  HIS372     -0.2268
    148  CD2       -0.9700   11.7220   -2.2180 C.ar  372  HIS372      0.1154
    149  CE1       -1.1380   13.3800   -3.6430 C.ar  372  HIS372      0.1986
    150  NE2       -0.2910   12.5180   -3.1090 N.ar  372  HIS372     -0.2212
    151  N         -2.0900    6.9120   -5.9540 N.3   374  ARG374     -0.1245
    152  CA        -1.8500    6.7320   -7.3870 C.3   374  ARG374      0.1563
    153  C         -2.5830    5.5740   -8.0530 C.2   374  ARG374      0.2260
    154  O         -3.2710    5.7660   -9.0560 O.2   374  ARG374     -0.2867
    155  CB        -0.3520    6.5730   -7.6620 C.3   374  ARG374      0.0307
    156  CG         0.4330    7.8480   -7.5110 C.3   374  ARG374      0.0489
    157  CD         1.9370    7.5930   -7.4940 C.3   374  ARG374      0.2205
    158  NE         2.6820    8.8450   -7.4100 N.pl3 374  ARG374     -0.0865
    159  CZ         2.7070    9.6540   -6.3550 C.cat 374  ARG374      0.5346
    160  NH1        2.0300    9.3660   -5.2480 N.pl3 374  ARG374      0.1354
    161  NH2        3.4090   10.7720   -6.4110 N.pl3 374  ARG374      0.1354
    162  N         -4.5030   12.0190    2.8090 N.3   419  GLU419     -0.1245
    163  CA        -3.4560   11.0390    2.5510 C.3   419  GLU419      0.1567
    164  C         -3.8670    9.7280    3.2220 C.2   419  GLU419      0.2260
    165  O         -4.6520    9.7300    4.1680 O.2   419  GLU419     -0.2867
    166  CB        -2.1170   11.5290    3.1190 C.3   419  GLU419      0.0388
    167  CG        -0.9510   10.6290    2.6390 C.3   419  GLU419      0.1160
    168  CD         0.4500   11.1480    2.9700 C.2   419  GLU419      0.3649
    169  OE1        0.5610   12.1360    3.7250 O.co2 419  GLU419     -0.2457
    170  OE2        1.4430   10.5670    2.4480 O.co2 419  GLU419     -0.2457
    171  N         -2.0960    5.7470    4.3380 N.3   421  ALA421     -0.1245
    172  CA        -0.8210    5.0590    4.4620 C.3   421  ALA421      0.1562
    173  C         -0.9020    3.8740    5.4050 C.2   421  ALA421      0.2260
    174  O         -1.7870    3.8010    6.2560 O.2   421  ALA421     -0.2867
    175  CB         0.2440    6.0400    4.9590 C.3   421  ALA421      0.0290
    176  N          0.7870    2.9920    8.0560 N.3   423  ASP423     -0.1225
    177  CA         0.7590    3.2940    9.4860 C.3   423  ASP423      0.1805
    178  C         -0.5610    3.8770    9.9810 C.2   423  ASP423      0.2597
    179  O         -0.9340    3.6610   11.1360 O.2   423  ASP423     -0.2718
    180  CB         1.9430    4.2020    9.8810 C.3   423  ASP423      0.1424
    181  CG         1.7110    5.6770    9.5660 C.2   423  ASP423      0.3668
    182  OD1        1.8470    6.0660    8.3890 O.co2 423  ASP423     -0.2456
    183  OD2        1.4040    6.4520   10.5110 O.co2 423  ASP423     -0.2456
    184  N         -1.2670    4.5980    9.1120 N.am  424  TYR424     -0.1976
    185  CA        -2.5610    5.1910    9.4720 C.3   424  TYR424      0.1639
    186  C         -3.5690    4.0890    9.8270 C.2   424  TYR424      0.2290
    187  O         -4.4010    4.2570   10.7140 O.2   424  TYR424     -0.2864
    188  CB        -3.1410    5.9860    8.2980 C.3   424  TYR424      0.0560
    189  CG        -2.5350    7.3450    8.0140 C.ar  424  TYR424     -0.0198
    190  CD1       -1.2750    7.7040    8.5060 C.ar  424  TYR424     -0.0009
    191  CD2       -3.2040    8.2510    7.1860 C.ar  424  TYR424     -0.0009
    192  CE1       -0.6980    8.9310    8.1750 C.ar  424  TYR424      0.0417
    193  CE2       -2.6370    9.4770    6.8520 C.ar  424  TYR424      0.0417
    194  CZ        -1.3870    9.8110    7.3460 C.ar  424  TYR424      0.1957
    195  OH        -0.8330   11.0180    7.0040 O.3   424  TYR424     -0.2866
@<TRIPOS>BOND
     1   154   153    2
     2   153   152    1
     3    40    39    2
     4   155   156    1
     5   155   152    1
     6    39    38    1
     7   156   157    1
     8   157   158    1
     9   158   159    2
    10   152   151    1
    11    37    38    1
    12    38    41    1
    13   161   159    1
    14   159   160    1
    15    41    42    1
    16    17    16    2
    17    42    44   ar
    18    42    43   ar
    19    20    19    1
    20    20    21    2
    21    44    46   ar
    22   149   147   ar
    23   149   150   ar
    24    19    22    1
    25    19    18    1
    26    16    18   am
    27    16    15    1
    28   147   146   ar
    29   150   148   ar
    30    22    23    1
    31    43    45   ar
    32   143   142    1
    33   143   144    2
    34    46    45   ar
    35   142   141    1
    36   142   145    1
    37   146   148   ar
    38   146   145    1
    39    15    14    1
    40    23    24   ar
    41    23    25   ar
    42    62    61    1
    43    14    11   am
    44    12    11    2
    45    61    60   ar
    46    61    59   ar
    47    11    10    1
    48    60    58   ar
    49    59    57   ar
    50     1     2    1
    51     9    10    1
    52     9     3   am
    53    10    13    1
    54    58    56   ar
    55    36    35   ar
    56    36    34   ar
    57    35    33   ar
    58    57    56   ar
    59     2     3    1
    60     2     5    1
    61     3     4    2
    62    34    32   ar
    63    56    55    1
    64     5     6    1
    65    33    31   ar
    66    26    27    1
    67   170   168   ar
    68   163   162    1
    69   163   166    1
    70   163   164    1
    71   167   168    1
    72   167   166    1
    73    32    31   ar
    74   168   169   ar
    75    31    30    1
    76   164   165    2
    77    55    52    1
    78     8     6   ar
    79    27    30    1
    80    27    28    1
    81     6     7   ar
    82   171   172    1
    83   172   175    1
    84   172   173    1
    85    50    49    2
    86    52    51    1
    87    52    53    1
    88    28    29    2
    89    49    51   am
    90    49    48    1
    91    48    47    1
    92    72    70   ar
    93    72    73   ar
    94   173   174    2
    95    70    68   ar
    96    74    73    1
    97    53    63   am
    98    53    54    2
    99    73    71   ar
   100    63    64    1
   101   117   119   ar
   102   117   115   ar
   103   193   191   ar
   104   193   194   ar
   105   119   118   ar
   106    68    67    1
   107    68    69   ar
   108   195   194    1
   109   191   189   ar
   110   194   192   ar
   111    71    69   ar
   112    67    64    1
   113   115   114   ar
   114   115   113   ar
   115   118   116   ar
   116    64    65    1
   117   114   112   ar
   118   189   188    1
   119   189   190   ar
   120   176   177    1
   121   192   190   ar
   122   113   116   ar
   123   113   111   ar
   124   188   185    1
   125    80    79    1
   126   182   181   ar
   127   112   111   ar
   128    65    75   am
   129    65    66    2
   130    75    76    1
   131   111   110    1
   132   184   185    1
   133   184   178   am
   134    76    79    1
   135    76    77    1
   136   185   186    1
   137   177   180    1
   138   177   178    1
   139   181   180    1
   140   181   183   ar
   141   110   107    1
   142   186   187    2
   143   178   179    2
   144   107   108    1
   145   107   106    1
   146   108   109    2
   147    92    94   ar
   148    92    90   ar
   149    77    78    2
   150    94    93   ar
   151   129   128    1
   152    90    89   ar
   153    90    88   ar
   154    89    87   ar
   155   130   128    1
   156    93    91   ar
   157    87    86   ar
   158    88    91   ar
   159    88    86   ar
   160   128   127    2
   161    86    85    1
   162   124   125    1
   163   124   121    1
   164    85    82    1
   165   125   126    1
   166   127   126    1
   167   120   121    1
   168   121   122    1
   169   105   103   ar
   170   105   104   ar
   171   103   101   ar
   172    82    83    1
   173    82    81    1
   174    98    97    2
   175   104   102   ar
   176    97    96    1
   177    83    84    2
   178   101   100   ar
   179   122   131   am
   180   122   123    2
   181   131   132    1
   182   102   100   ar
   183   100    99    1
   184   140   138   ar
   185   140   139   ar
   186   138   136   ar
   187    96    99    1
   188    96    95    1
   189   139   137   ar
   190   136   135    1
   191   136   137   ar
   192   132   135    1
   193   132   133    1
   194   133   134    2
