@<TRIPOS>MOLECULE
tmp/1kflH01.pdb
 120 112 0 0 0
SMALL
GASTEIGER

@<TRIPOS>ATOM
      1  N        -22.5000   71.9010   98.1300 N.3    39  ARG39      -0.1245
      2  CA       -23.3890   72.3680   99.1820 C.3    39  ARG39       0.1563
      3  C        -22.8540   73.6820   99.7340 C.2    39  ARG39       0.2260
      4  O        -23.6160   74.6330   99.9130 O.2    39  ARG39      -0.2867
      5  CB       -23.4930   71.3390  100.3070 C.3    39  ARG39       0.0307
      6  CG       -24.2660   70.0760   99.9520 C.3    39  ARG39       0.0489
      7  CD       -24.3190   69.1370  101.1510 C.3    39  ARG39       0.2205
      8  NE       -25.0550   67.9030  100.8880 N.pl3  39  ARG39      -0.0865
      9  CZ       -25.1960   66.9200  101.7740 C.cat  39  ARG39       0.5346
     10  NH1      -24.6530   67.0260  102.9780 N.pl3  39  ARG39       0.1354
     11  NH2      -25.8750   65.8280  101.4560 N.pl3  39  ARG39       0.1354
     12  N        -38.5180   58.5370  104.1160 N.3   144  ILE144     -0.1245
     13  CA       -37.6460   57.3670  104.2000 C.3   144  ILE144      0.1561
     14  C        -36.5800   57.3130  103.1150 C.2   144  ILE144      0.2260
     15  O        -35.4450   56.9030  103.3550 O.2   144  ILE144     -0.2867
     16  CB       -38.4830   56.0630  104.1500 C.3   144  ILE144      0.0252
     17  CG1      -39.3310   55.9600  105.4200 C.3   144  ILE144      0.0019
     18  CG2      -37.5760   54.8410  104.0340 C.3   144  ILE144      0.0019
     19  CD1      -40.3090   54.7960  105.4290 C.3   144  ILE144      0.0001
     20  N        -34.7770   59.6040  101.8190 N.3   146  PRO146     -0.2102
     21  CA       -33.5730   60.3850  102.1440 C.3   146  PRO146      0.1504
     22  C        -32.4410   59.5250  102.7320 C.2   146  PRO146      0.2575
     23  O        -31.2890   59.6260  102.3000 O.2   146  PRO146     -0.2718
     24  CB       -34.0820   61.4170  103.1510 C.3   146  PRO146      0.0282
     25  CG       -35.4820   61.6470  102.7280 C.3   146  PRO146      0.0208
     26  CD       -35.9750   60.2360  102.4050 C.3   146  PRO146      0.0893
     27  N        -32.7700   58.6750  103.7070 N.am  147  GLN147     -0.1980
     28  CA       -31.7690   57.8130  104.3260 C.3   147  GLN147      0.1601
     29  C        -30.9110   57.0400  103.3180 C.2   147  GLN147      0.2287
     30  O        -29.7420   56.7690  103.5900 O.2   147  GLN147     -0.2864
     31  CB       -32.4390   56.8380  105.2920 C.3   147  GLN147      0.0394
     32  CG       -32.9650   57.5090  106.5590 C.3   147  GLN147      0.0908
     33  CD       -31.8470   58.0040  107.4810 C.2   147  GLN147      0.2608
     34  OE1      -30.9260   58.6950  107.0520 O.2   147  GLN147     -0.2717
     35  NE2      -31.9350   57.6500  108.7560 N.am  147  GLN147     -0.0878
     36  N        -29.7570   60.9080  100.4130 N.3   150  ALA150     -0.1231
     37  CA       -29.4500   62.2800  100.8370 C.3   150  ALA150      0.1694
     38  C        -27.9630   62.6360  100.8650 C.2   150  ALA150      0.2592
     39  O        -27.5930   63.7680  100.5620 O.2   150  ALA150     -0.2718
     40  CB       -30.0620   62.5570  102.2060 C.3   150  ALA150      0.0304
     41  N        -27.1140   61.6810  101.2300 N.am  151  ASP151     -0.1974
     42  CA       -25.6810   61.9370  101.2870 C.3   151  ASP151      0.1709
     43  C        -25.0730   62.2040   99.9100 C.2   151  ASP151      0.2293
     44  O        -23.9250   62.6380   99.8130 O.2   151  ASP151     -0.2864
     45  CB       -24.9480   60.7680  101.9680 C.3   151  ASP151      0.1436
     46  CG       -25.0620   59.4520  101.1920 C.2   151  ASP151      0.3671
     47  OD1      -26.1780   58.8810  101.1150 O.co2 151  ASP151     -0.2456
     48  OD2      -24.0250   58.9860  100.6630 O.co2 151  ASP151     -0.2456
     49  N        -39.1570   67.2790  107.6600 N.3   170  LEU170     -0.1245
     50  CA       -38.1140   66.5330  106.9530 C.3   170  LEU170      0.1561
     51  C        -37.0460   67.4780  106.3910 C.2   170  LEU170      0.2260
     52  O        -35.8490   67.2080  106.5040 O.2   170  LEU170     -0.2867
     53  CB       -38.7190   65.7230  105.7910 C.3   170  LEU170      0.0270
     54  CG       -37.7880   65.3430  104.6180 C.3   170  LEU170      0.0019
     55  CD1      -36.5490   64.5640  105.1060 C.3   170  LEU170      0.0001
     56  CD2      -38.5890   64.5220  103.6180 C.3   170  LEU170      0.0001
     57  N        -34.2880   68.8360  108.4620 N.3   173  GLY173     -0.1210
     58  CA       -33.2660   67.8850  108.8610 C.3   173  GLY173      0.1956
     59  C        -32.3690   67.4100  107.7340 C.2   173  GLY173      0.2612
     60  O        -31.4090   66.6630  107.9590 O.2   173  GLY173     -0.2717
     61  N        -32.6760   67.8220  106.5110 N.am  174  LEU174     -0.1965
     62  CA       -31.8460   67.4200  105.3880 C.3   174  LEU174      0.1728
     63  C        -30.4980   68.1280  105.5110 C.2   174  LEU174      0.2617
     64  O        -30.4230   69.2640  105.9800 O.2   174  LEU174     -0.2715
     65  CB       -32.5260   67.7720  104.0650 C.3   174  LEU174      0.0311
     66  CG       -33.8160   66.9970  103.7690 C.3   174  LEU174      0.0022
     67  CD1      -34.3430   67.3680  102.3840 C.3   174  LEU174      0.0001
     68  CD2      -33.5360   65.5040  103.8290 C.3   174  LEU174      0.0001
     69  N        -29.4320   67.4490  105.1040 N.am  175  SER175     -0.1936
     70  CA       -28.0820   68.0020  105.1780 C.3   175  SER175      0.2055
     71  C        -27.7280   68.8900  103.9830 C.2   175  SER175      0.2643
     72  O        -26.5740   69.2720  103.8100 O.2   175  SER175     -0.2714
     73  CB       -27.0680   66.8570  105.2790 C.3   175  SER175      0.2130
     74  OG       -27.3370   66.0630  106.4160 O.3   175  SER175     -0.2179
     75  N        -28.7180   69.2290  103.1670 N.am  176  CYS176     -0.1967
     76  CA       -28.4710   70.0490  101.9870 C.3   176  CYS176      0.1712
     77  C        -29.4800   71.1810  101.8610 C.2   176  CYS176      0.2296
     78  O        -30.5200   71.1860  102.5250 O.2   176  CYS176     -0.2864
     79  CB       -28.5610   69.1800  100.7310 C.3   176  CYS176      0.0983
     80  SG       -30.2510   68.5520  100.4340 S.3   176  CYS176     -0.0798
     81  N        -39.7650   64.0230  113.4640 N.3   204  PHE204     -0.1241
     82  CA       -40.5440   63.3190  112.4540 C.3   204  PHE204      0.1605
     83  C        -40.1160   61.8600  112.4550 C.2   204  PHE204      0.2264
     84  O        -38.9750   61.5560  112.7960 O.2   204  PHE204     -0.2867
     85  CB       -40.4050   63.9790  111.0760 C.3   204  PHE204      0.0534
     86  CG       -39.0710   63.7840  110.4200 C.ar  204  PHE204     -0.0203
     87  CD1      -38.8160   62.6530  109.6460 C.ar  204  PHE204     -0.0042
     88  CD2      -38.0880   64.7640  110.5160 C.ar  204  PHE204     -0.0042
     89  CE1      -37.5960   62.5050  108.9670 C.ar  204  PHE204     -0.0003
     90  CE2      -36.8660   64.6280  109.8430 C.ar  204  PHE204     -0.0003
     91  CZ       -36.6240   63.4960  109.0660 C.ar  204  PHE204     -0.0000
     92  N        -39.2040   58.1280  110.8540 N.3   206  SER206     -0.1202
     93  CA       -38.5340   57.5980  109.6770 C.3   206  SER206      0.2020
     94  C        -37.8020   56.3260  110.1230 C.2   206  SER206      0.2618
     95  O        -38.2750   55.6250  111.0090 O.2   206  SER206     -0.2717
     96  CB       -37.5600   58.6390  109.1400 C.3   206  SER206      0.2103
     97  OG       -36.8810   58.1570  107.9970 O.3   206  SER206     -0.2182
     98  N        -36.6660   56.0050  109.5220 N.am  207  VAL207     -0.1979
     99  CA       -35.9450   54.8190  109.9430 C.3   207  VAL207      0.1595
    100  C        -34.4530   55.0890  110.1080 C.2   207  VAL207      0.2287
    101  O        -33.8600   55.8670  109.3590 O.2   207  VAL207     -0.2864
    102  CB       -36.0940   53.6750  108.9400 C.3   207  VAL207      0.0276
    103  CG1      -37.5400   53.2770  108.8230 C.3   207  VAL207      0.0022
    104  CG2      -35.5130   54.0910  107.6060 C.3   207  VAL207      0.0022
    105  N        -30.3980   54.2300  110.0660 N.3   209  LYS209     -0.1245
    106  CA       -29.6220   53.7330  108.9420 C.3   209  LYS209      0.1561
    107  C        -29.6770   52.2120  108.9170 C.2   209  LYS209      0.2260
    108  O        -29.3750   51.5870  107.8950 O.2   209  LYS209     -0.2867
    109  CB       -28.1690   54.1680  109.0630 C.3   209  LYS209      0.0271
    110  CG       -27.7000   55.0440  107.9330 C.3   209  LYS209      0.0035
    111  CD       -28.4000   56.3800  107.9800 C.3   209  LYS209      0.0206
    112  CE       -27.7730   57.3350  106.9980 C.3   209  LYS209      0.1093
    113  NZ       -28.3150   58.6890  107.2570 N.3   209  LYS209     -0.1314
    114  N        -36.7940   61.0580  114.4770 N.3   216  VAL216     -0.1245
    115  CA       -35.7040   61.9580  114.1350 C.3   216  VAL216      0.1561
    116  C        -35.9230   63.3670  114.6830 C.2   216  VAL216      0.2260
    117  O        -36.9910   63.9570  114.4840 O.2   216  VAL216     -0.2867
    118  CB       -35.5490   62.0630  112.6250 C.3   216  VAL216      0.0252
    119  CG1      -34.4080   62.9830  112.2890 C.3   216  VAL216      0.0019
    120  CG2      -35.3130   60.6940  112.0420 C.3   216  VAL216      0.0019
@<TRIPOS>BOND
     1     1     2    1
     2     2     3    1
     3     2     5    1
     4     3     4    2
     5    44    43    2
     6    43    42    1
     7     6     5    1
     8     6     7    1
     9    36    37    1
    10    80    79    1
    11    39    38    2
    12    48    46   ar
    13    79    76    1
    14    37    38    1
    15    37    40    1
    16    38    41   am
    17     8     7    1
    18     8     9    2
    19    47    46   ar
    20    46    45    1
    21    41    42    1
    22    42    45    1
    23    11     9    1
    24     9    10    1
    25    20    21    1
    26    20    26    1
    27    77    76    1
    28    77    78    2
    29    76    75    1
    30    21    22    1
    31    21    24    1
    32    23    22    2
    33    67    66    1
    34    26    25    1
    35    25    24    1
    36    22    27   am
    37    14    15    2
    38    14    13    1
    39    75    71   am
    40    29    30    2
    41    29    28    1
    42    56    54    1
    43    27    28    1
    44    66    68    1
    45    66    65    1
    46    72    71    2
    47    71    70    1
    48    18    16    1
    49    65    62    1
    50    12    13    1
    51    16    13    1
    52    16    17    1
    53    28    31    1
    54    54    55    1
    55    54    53    1
    56    69    70    1
    57    69    63   am
    58    70    73    1
    59    73    74    1
    60    31    32    1
    61    62    63    1
    62    62    61    1
    63    17    19    1
    64    63    64    2
    65    53    50    1
    66    51    52    2
    67    51    50    1
    68    61    59   am
    69    32    33    1
    70    50    49    1
    71   112   113    1
    72   112   111    1
    73    34    33    2
    74    33    35   am
    75   104   102    1
    76    59    60    2
    77    59    58    1
    78   108   107    2
    79   110   111    1
    80   110   109    1
    81    97    96    1
    82    57    58    1
    83   103   102    1
    84   107   106    1
    85   102    99    1
    86   106   109    1
    87   106   105    1
    88    89    91   ar
    89    89    87   ar
    90    91    90   ar
    91    96    93    1
    92   101   100    2
    93    98    99    1
    94    98    94   am
    95    87    86   ar
    96    93    94    1
    97    93    92    1
    98    90    88   ar
    99    99   100    1
   100    94    95    2
   101    86    88   ar
   102    86    85    1
   103    85    82    1
   104   120   118    1
   105   119   118    1
   106    82    83    1
   107    82    81    1
   108    83    84    2
   109   118   115    1
   110   115   114    1
   111   115   116    1
   112   117   116    2
