@<TRIPOS>MOLECULE
tmp/1kfrA00.pdb
 240 234 0 0 0
SMALL
GASTEIGER

@<TRIPOS>ATOM
      1  N         27.8330   28.7020   43.9360 N.3    32  TYR32      -0.1241
      2  CA        29.0480   28.4540   44.7060 C.3    32  TYR32       0.1605
      3  C         29.3610   29.6070   45.6440 C.2    32  TYR32       0.2264
      4  O         29.7570   29.3750   46.7910 O.2    32  TYR32      -0.2867
      5  CB        30.2330   28.0380   43.8030 C.3    32  TYR32       0.0534
      6  CG        30.2160   26.5640   43.3750 C.ar   32  TYR32      -0.0201
      7  CD1       30.1880   25.5490   44.3130 C.ar   32  TYR32      -0.0009
      8  CD2       30.2150   26.1950   42.0150 C.ar   32  TYR32      -0.0009
      9  CE1       30.1420   24.2050   43.9320 C.ar   32  TYR32       0.0417
     10  CE2       30.2330   24.8360   41.6290 C.ar   32  TYR32       0.0417
     11  CZ        30.1890   23.8550   42.5850 C.ar   32  TYR32       0.1957
     12  OH        30.1450   22.5170   42.1940 O.3    32  TYR32      -0.2866
     13  N         27.4120   29.0120   48.6410 N.3    35  LEU35      -0.1245
     14  CA        27.9690   27.8580   49.3410 C.3    35  LEU35       0.1561
     15  C         29.2080   28.2590   50.1460 C.2    35  LEU35       0.2260
     16  O         29.3130   27.9390   51.3400 O.2    35  LEU35      -0.2867
     17  CB        28.2950   26.7130   48.3590 C.3    35  LEU35       0.0270
     18  CG        28.9000   25.4410   48.9790 C.3    35  LEU35       0.0019
     19  CD1       27.9130   24.6460   49.8470 C.3    35  LEU35       0.0001
     20  CD2       29.5130   24.5450   47.8940 C.3    35  LEU35       0.0001
     21  N         34.9010   24.9510   52.8390 N.3    42  TYR42      -0.1241
     22  CA        34.7290   24.0250   51.7190 C.3    42  TYR42       0.1605
     23  C         35.5950   24.4140   50.5290 C.2    42  TYR42       0.2264
     24  O         35.8080   23.5800   49.6380 O.2    42  TYR42      -0.2867
     25  CB        33.2840   23.9550   51.2110 C.3    42  TYR42       0.0534
     26  CG        32.3130   23.3980   52.1900 C.ar   42  TYR42      -0.0201
     27  CD1       32.7210   22.9570   53.4520 C.ar   42  TYR42      -0.0009
     28  CD2       30.9730   23.3250   51.8600 C.ar   42  TYR42      -0.0009
     29  CE1       31.7830   22.4860   54.3640 C.ar   42  TYR42       0.0417
     30  CE2       30.0630   22.8060   52.7170 C.ar   42  TYR42       0.0417
     31  CZ        30.4570   22.4290   53.9870 C.ar   42  TYR42       0.1957
     32  OH        29.4870   21.9910   54.8550 O.3    42  TYR42      -0.2866
     33  N         38.5030   22.3080   49.4480 N.3    45  HIS45      -0.1226
     34  CA        38.1470   20.9640   49.0040 C.3    45  HIS45       0.1752
     35  C         38.0520   20.8770   47.4810 C.2    45  HIS45       0.2596
     36  O         38.0210   19.7860   46.9210 O.2    45  HIS45      -0.2718
     37  CB        36.8520   20.5170   49.6710 C.3    45  HIS45       0.0759
     38  CG        36.9400   20.4870   51.1640 C.ar   45  HIS45       0.0818
     39  ND1       35.8340   20.3570   51.9780 N.ar   45  HIS45      -0.2268
     40  CD2       38.0200   20.4840   51.9880 C.ar   45  HIS45       0.1154
     41  CE1       36.2250   20.3300   53.2420 C.ar   45  HIS45       0.1986
     42  NE2       37.5450   20.4190   53.2770 N.ar   45  HIS45      -0.2212
     43  N         38.0760   22.0290   46.8160 N.am   46  PHE46      -0.1962
     44  CA        38.0020   22.0870   45.3510 C.3    46  PHE46       0.1771
     45  C         39.4420   22.2980   44.8780 C.2    46  PHE46       0.2620
     46  O         40.0510   23.3210   45.1580 O.2    46  PHE46      -0.2715
     47  CB        37.1140   23.2640   44.9010 C.3    46  PHE46       0.0574
     48  CG        35.6400   23.0770   45.1760 C.ar   46  PHE46      -0.0200
     49  CD1       35.1300   23.1390   46.4760 C.ar   46  PHE46      -0.0042
     50  CD2       34.7480   22.8830   44.1220 C.ar   46  PHE46      -0.0042
     51  CE1       33.7480   22.9750   46.7260 C.ar   46  PHE46      -0.0003
     52  CE2       33.3950   22.6880   44.3550 C.ar   46  PHE46      -0.0003
     53  CZ        32.8770   22.7540   45.6550 C.ar   46  PHE46      -0.0000
     54  N         40.0230   21.2870   44.2380 N.am   47  SER47      -0.1936
     55  CA        41.4550   21.3360   43.9470 C.3    47  SER47       0.2055
     56  C         41.9290   22.6290   43.2660 C.2    47  SER47       0.2642
     57  O         42.9640   23.1930   43.6320 O.2    47  SER47      -0.2714
     58  CB        41.8920   20.1000   43.1500 C.3    47  SER47       0.2130
     59  OG        41.1860   20.0120   41.9240 O.3    47  SER47      -0.2179
     60  N         41.1810   23.0780   42.2680 N.am   48  ARG48      -0.1977
     61  CA        41.5660   24.2630   41.5160 C.3    48  ARG48       0.1597
     62  C         41.4700   25.5680   42.3300 C.2    48  ARG48       0.2287
     63  O         41.9720   26.6080   41.8920 O.2    48  ARG48      -0.2864
     64  CB        40.7350   24.3860   40.2410 C.3    48  ARG48       0.0334
     65  CG        40.9040   23.2780   39.2540 C.3    48  ARG48       0.0492
     66  CD        40.0710   23.4960   37.9770 C.3    48  ARG48       0.2205
     67  NE        40.0720   22.2840   37.1600 N.pl3  48  ARG48      -0.0865
     68  CZ        39.9320   22.2440   35.8360 C.cat  48  ARG48       0.5346
     69  NH1       39.7550   23.3590   35.1290 N.pl3  48  ARG48       0.1354
     70  NH2       39.9690   21.0620   35.2210 N.pl3  48  ARG48       0.1354
     71  N         35.1650   27.1650   35.8200 N.3    65  HIS65      -0.1226
     72  CA        35.0440   25.7540   35.4380 C.3    65  HIS65       0.1752
     73  C         33.9340   25.0540   36.2410 C.2    65  HIS65       0.2596
     74  O         32.9750   24.4990   35.6910 O.2    65  HIS65      -0.2718
     75  CB        36.3770   25.0730   35.7070 C.3    65  HIS65       0.0759
     76  CG        36.3370   23.5890   35.5830 C.ar   65  HIS65       0.0818
     77  ND1       36.2520   22.9530   34.3630 N.ar   65  HIS65      -0.2268
     78  CD2       36.4070   22.6120   36.5180 C.ar   65  HIS65       0.1154
     79  CE1       36.2740   21.6440   34.5540 C.ar   65  HIS65       0.1986
     80  NE2       36.3810   21.4120   35.8490 N.ar   65  HIS65      -0.2212
     81  N         34.0710   25.1030   37.5550 N.am   66  TYR66      -0.1976
     82  CA        33.0670   24.5560   38.4470 C.3    66  TYR66       0.1639
     83  C         31.6680   25.1310   38.1970 C.2    66  TYR66       0.2290
     84  O         30.6910   24.4030   38.2330 O.2    66  TYR66      -0.2864
     85  CB        33.5140   24.7590   39.8910 C.3    66  TYR66       0.0560
     86  CG        34.8310   24.0600   40.2060 C.ar   66  TYR66      -0.0198
     87  CD1       34.9650   22.6910   40.0230 C.ar   66  TYR66      -0.0009
     88  CD2       35.8750   24.7410   40.8110 C.ar   66  TYR66      -0.0009
     89  CE1       36.1280   22.0400   40.3380 C.ar   66  TYR66       0.0417
     90  CE2       37.0540   24.0940   41.1410 C.ar   66  TYR66       0.0417
     91  CZ        37.1610   22.7380   40.9260 C.ar   66  TYR66       0.1957
     92  OH        38.3300   22.0910   41.2560 O.3    66  TYR66      -0.2866
     93  N         30.1870   23.5030   34.9790 N.3    69  THR69      -0.1203
     94  CA        29.8600   22.0800   35.0850 C.3    69  THR69       0.1994
     95  C         28.6730   21.8400   36.0270 C.2    69  THR69       0.2617
     96  O         27.8960   20.9320   35.8000 O.2    69  THR69      -0.2717
     97  CB        31.0790   21.2300   35.4950 C.3    69  THR69       0.1784
     98  OG1       31.6170   21.6990   36.7380 O.3    69  THR69      -0.2211
     99  CG2       32.2220   21.4300   34.5200 C.3    69  THR69       0.0376
    100  N         28.5380   22.6840   37.0600 N.am   70  LEU70      -0.1979
    101  CA        27.4010   22.6030   37.9830 C.3    70  LEU70       0.1596
    102  C         26.0880   22.9080   37.2650 C.2    70  LEU70       0.2287
    103  O         25.1500   22.1390   37.3200 O.2    70  LEU70      -0.2864
    104  CB        27.5760   23.5900   39.1410 C.3    70  LEU70       0.0297
    105  CG        26.4340   23.6680   40.1610 C.3    70  LEU70       0.0022
    106  CD1       26.1640   22.3240   40.8190 C.3    70  LEU70       0.0001
    107  CD2       26.7530   24.7380   41.2220 C.3    70  LEU70       0.0001
    108  N         25.0870   20.2580   34.8580 N.3    73  ALA73      -0.1231
    109  CA        24.6220   19.0200   35.4920 C.3    73  ALA73       0.1694
    110  C         23.1940   19.1800   36.0110 C.2    73  ALA73       0.2591
    111  O         22.3640   18.2790   35.8790 O.2    73  ALA73      -0.2718
    112  CB        25.5700   18.5940   36.6200 C.3    73  ALA73       0.0304
    113  N         22.9140   20.3210   36.6360 N.am   74  ILE74      -0.1980
    114  CA        21.5670   20.5930   37.1180 C.3    74  ILE74       0.1595
    115  C         20.5330   20.6020   35.9760 C.2    74  ILE74       0.2287
    116  O         19.4110   20.0580   36.0850 O.2    74  ILE74      -0.2864
    117  CB        21.5310   21.9490   37.8570 C.3    74  ILE74       0.0276
    118  CG1       22.2960   21.8390   39.2010 C.3    74  ILE74       0.0022
    119  CG2       20.0960   22.3830   38.0460 C.3    74  ILE74       0.0022
    120  CD1       22.5720   23.1760   39.9000 C.3    74  ILE74       0.0001
    121  N         19.8890   16.9740   34.6440 N.3    77  MET77      -0.1245
    122  CA        18.9430   16.2520   35.4990 C.3    77  MET77       0.1570
    123  C         17.5080   16.7890   35.3580 C.2    77  MET77       0.2261
    124  O         16.5530   16.0320   35.3050 O.2    77  MET77      -0.2867
    125  CB        19.4080   16.2800   36.9590 C.3    77  MET77       0.0387
    126  CG        20.6560   15.4450   37.1900 C.3    77  MET77       0.0595
    127  SD        21.1390   15.3140   38.8950 S.3    77  MET77      -0.1393
    128  CE        21.7100   17.0070   39.1750 C.3    77  MET77       0.0692
    129  N         26.8040   11.7530   38.3840 N.3    94  TYR94      -0.1241
    130  CA        27.2400   13.0470   38.9220 C.3    94  TYR94       0.1605
    131  C         27.7330   12.8980   40.3670 C.2    94  TYR94       0.2264
    132  O         28.6900   13.5690   40.7800 O.2    94  TYR94      -0.2867
    133  CB        26.1330   14.0980   38.8310 C.3    94  TYR94       0.0534
    134  CG        25.8850   14.6350   37.4230 C.ar   94  TYR94      -0.0201
    135  CD1       26.9390   14.8370   36.5330 C.ar   94  TYR94      -0.0009
    136  CD2       24.5830   14.8930   36.9730 C.ar   94  TYR94      -0.0009
    137  CE1       26.7000   15.3310   35.2390 C.ar   94  TYR94       0.0417
    138  CE2       24.3420   15.3890   35.6870 C.ar   94  TYR94       0.0417
    139  CZ        25.4040   15.5870   34.8270 C.ar   94  TYR94       0.1957
    140  OH        25.1940   16.0630   33.5460 O.3    94  TYR94      -0.2866
    141  N         31.1430   11.3890   40.1140 N.3    97  ASP97      -0.1225
    142  CA        32.1120   12.3780   39.6280 C.3    97  ASP97       0.1805
    143  C         32.8020   13.1440   40.7610 C.2    97  ASP97       0.2598
    144  O         33.8460   13.7690   40.5520 O.2    97  ASP97      -0.2718
    145  CB        31.4280   13.3930   38.7140 C.3    97  ASP97       0.1424
    146  CG        31.0360   12.8080   37.3800 C.2    97  ASP97       0.3668
    147  OD1       31.6020   11.7680   36.9780 O.co2  97  ASP97      -0.2456
    148  OD2       30.1370   13.3140   36.6770 O.co2  97  ASP97      -0.2456
    149  N         32.2030   13.1240   41.9470 N.am   98  HIS98      -0.1961
    150  CA        32.7810   13.7750   43.1240 C.3    98  HIS98       0.1787
    151  C         33.7950   12.8190   43.7290 C.2    98  HIS98       0.2621
    152  O         33.5970   12.2920   44.8180 O.2    98  HIS98      -0.2715
    153  CB        31.6930   14.1090   44.1660 C.3    98  HIS98       0.0785
    154  CG        30.8140   15.2550   43.7710 C.ar   98  HIS98       0.0821
    155  ND1       29.8250   15.1390   42.8180 N.ar   98  HIS98      -0.2267
    156  CD2       30.7870   16.5460   44.1820 C.ar   98  HIS98       0.1154
    157  CE1       29.2530   16.3160   42.6300 C.ar   98  HIS98       0.1986
    158  NE2       29.8130   17.1860   43.4510 N.ar   98  HIS98      -0.2212
    159  N         34.8650   12.5910   42.9890 N.am   99  THR99      -0.1937
    160  CA        35.8900   11.6270   43.4080 C.3    99  THR99       0.2028
    161  C         36.7780   12.0710   44.5560 C.2    99  THR99       0.2642
    162  O         37.2320   11.2470   45.3550 O.2    99  THR99      -0.2714
    163  CB        36.7820   11.2580   42.1970 C.3    99  THR99       0.1808
    164  OG1       37.3460   12.4500   41.6360 O.3    99  THR99      -0.2208
    165  CG2       35.9740   10.5450   41.1320 C.3    99  THR99       0.0379
    166  N         37.0230   13.3690   44.6400 N.am  100  SER100     -0.1949
    167  CA        37.9000   13.9160   45.6560 C.3   100  SER100      0.1924
    168  C         37.6700   13.2880   47.0300 C.2   100  SER100      0.2314
    169  O         36.5390   13.2290   47.5320 O.2   100  SER100     -0.2863
    170  CB        37.7300   15.4330   45.7530 C.3   100  SER100      0.2116
    171  OG        38.6110   15.9710   46.7320 O.3   100  SER100     -0.2180
    172  N         35.7730   15.4640   49.7890 N.3   103  VAL103     -0.1245
    173  CA        34.3290   15.6900   49.9270 C.3   103  VAL103      0.1561
    174  C         33.5800   14.4540   50.4290 C.2   103  VAL103      0.2260
    175  O         33.7910   13.3550   49.9290 O.2   103  VAL103     -0.2867
    176  CB        33.7000   16.1800   48.6000 C.3   103  VAL103      0.0252
    177  CG1       33.8970   15.1430   47.4970 C.3   103  VAL103      0.0019
    178  CG2       32.2290   16.4990   48.7940 C.3   103  VAL103      0.0019
    179  N         29.0100   16.4480   53.8770 N.3   107  GLU107     -0.1231
    180  CA        29.4020   17.7570   53.3870 C.3   107  GLU107      0.1699
    181  C         28.5670   18.1170   52.1430 C.2   107  GLU107      0.2592
    182  O         28.0700   19.2320   52.0150 O.2   107  GLU107     -0.2718
    183  CB        30.9030   17.7850   53.0720 C.3   107  GLU107      0.0402
    184  CG        31.4070   19.1520   52.6550 C.3   107  GLU107      0.1161
    185  CD        32.9280   19.2520   52.6020 C.2   107  GLU107      0.3649
    186  OE1       33.4660   19.5580   51.5050 O.co2 107  GLU107     -0.2457
    187  OE2       33.5760   19.1130   53.6700 O.co2 107  GLU107     -0.2457
    188  N         28.4680   17.1790   51.2160 N.am  108  PHE108     -0.1976
    189  CA        27.6790   17.3630   49.9980 C.3   108  PHE108      0.1639
    190  C         26.2510   17.7270   50.3440 C.2   108  PHE108      0.2290
    191  O         25.6840   18.6860   49.7950 O.2   108  PHE108     -0.2864
    192  CB        27.6810   16.0610   49.1890 C.3   108  PHE108      0.0560
    193  CG        26.9570   16.1530   47.8850 C.ar  108  PHE108     -0.0200
    194  CD1       27.6120   16.6300   46.7490 C.ar  108  PHE108     -0.0042
    195  CD2       25.6290   15.7700   47.7900 C.ar  108  PHE108     -0.0042
    196  CE1       26.9490   16.7200   45.5420 C.ar  108  PHE108     -0.0003
    197  CE2       24.9450   15.8850   46.5860 C.ar  108  PHE108     -0.0003
    198  CZ        25.6200   16.3370   45.4560 C.ar  108  PHE108     -0.0000
    199  N         24.8990   21.2250   51.3320 N.3   111  GLY111     -0.1225
    200  CA        24.7180   22.2250   50.2920 C.3   111  GLY111      0.1811
    201  C         23.2750   22.3180   49.8210 C.2   111  GLY111      0.2280
    202  O         22.8440   23.3080   49.2280 O.2   111  GLY111     -0.2866
    203  N         21.7190   25.7180   48.1050 N.3   115  PHE115     -0.1241
    204  CA        21.3910   25.7490   46.6730 C.3   115  PHE115      0.1605
    205  C         19.8880   25.9580   46.4890 C.2   115  PHE115      0.2264
    206  O         19.4530   26.6420   45.5700 O.2   115  PHE115     -0.2867
    207  CB        21.7830   24.4320   45.9830 C.3   115  PHE115      0.0534
    208  CG        23.2410   24.3430   45.6030 C.ar  115  PHE115     -0.0203
    209  CD1       24.1680   25.2770   46.0610 C.ar  115  PHE115     -0.0042
    210  CD2       23.6800   23.3250   44.7790 C.ar  115  PHE115     -0.0042
    211  CE1       25.5020   25.1740   45.6960 C.ar  115  PHE115     -0.0003
    212  CE2       25.0130   23.1880   44.4560 C.ar  115  PHE115     -0.0003
    213  CZ        25.9320   24.0930   44.9290 C.ar  115  PHE115     -0.0000
    214  N         15.3400   19.8920   43.8300 N.3   136  LEU136     -0.1245
    215  CA        16.6170   19.6920   44.5280 C.3   136  LEU136      0.1561
    216  C         16.5430   18.6770   45.6630 C.2   136  LEU136      0.2260
    217  O         17.4910   17.9260   45.8890 O.2   136  LEU136     -0.2867
    218  CB        17.1950   21.0150   45.0080 C.3   136  LEU136      0.0270
    219  CG        17.5870   21.9030   43.8290 C.3   136  LEU136      0.0019
    220  CD1       17.9960   23.2900   44.3350 C.3   136  LEU136      0.0001
    221  CD2       18.7290   21.2560   43.0140 C.3   136  LEU136      0.0001
    222  N         19.3830   15.7080   45.2400 N.3   140  PHE140     -0.1241
    223  CA        20.5210   15.7010   46.1700 C.3   140  PHE140      0.1605
    224  C         20.8000   14.3110   46.7380 C.2   140  PHE140      0.2264
    225  O         21.9370   13.8480   46.7130 O.2   140  PHE140     -0.2867
    226  CB        20.3690   16.7480   47.2860 C.3   140  PHE140      0.0534
    227  CG        21.1950   17.9830   47.0700 C.ar  140  PHE140     -0.0203
    228  CD1       20.7440   18.9960   46.2510 C.ar  140  PHE140     -0.0042
    229  CD2       22.4330   18.1320   47.6890 C.ar  140  PHE140     -0.0042
    230  CE1       21.5000   20.1320   46.0360 C.ar  140  PHE140     -0.0003
    231  CE2       23.2040   19.2700   47.4720 C.ar  140  PHE140     -0.0003
    232  CZ        22.7300   20.2800   46.6500 C.ar  140  PHE140     -0.0000
    233  N         22.3730   11.8380   44.1490 N.3   143  MET143     -0.1245
    234  CA        23.7990   12.0520   43.9610 C.3   143  MET143      0.1570
    235  C         24.5740   11.6410   45.2080 C.2   143  MET143      0.2261
    236  O         25.5930   10.9760   45.1220 O.2   143  MET143     -0.2867
    237  CB        24.0790   13.5220   43.6290 C.3   143  MET143      0.0387
    238  CG        23.7010   13.9170   42.2070 C.3   143  MET143      0.0595
    239  SD        23.9590   15.6720   41.9360 S.3   143  MET143     -0.1393
    240  CE        22.6320   16.3390   42.8870 C.3   143  MET143      0.0692
@<TRIPOS>BOND
     1   140   139    1
     2    77    79   ar
     3    77    76   ar
     4    99    97    1
     5    79    80   ar
     6   121   122    1
     7   139   137   ar
     8   139   138   ar
     9   108   109    1
    10    93    94    1
    11    94    97    1
    12    94    95    1
    13    69    68    1
    14    70    68    1
    15   137   135   ar
    16   124   123    2
    17   123   122    1
    18    72    75    1
    19    72    71    1
    20    72    73    1
    21   109   110    1
    22   109   112    1
    23    97    98    1
    24   122   125    1
    25    76    75    1
    26    76    78   ar
    27   138   136   ar
    28    74    73    2
    29    96    95    2
    30    68    67    2
    31    80    78   ar
    32   111   110    2
    33   115   116    2
    34   115   114    1
    35   110   113   am
    36    95   100   am
    37    73    81   am
    38   135   134   ar
    39   113   114    1
    40   148   146   ar
    41   125   126    1
    42   136   134   ar
    43   147   146   ar
    44   100   101    1
    45   114   117    1
    46    67    66    1
    47   126   127    1
    48   102   103    2
    49   102   101    1
    50   146   145    1
    51   134   133    1
    52    81    82    1
    53   117   119    1
    54   117   118    1
    55    66    65    1
    56   101   104    1
    57    83    84    2
    58    83    82    1
    59   129   130    1
    60    82    85    1
    61   145   142    1
    62   133   130    1
    63   127   128    1
    64   130   131    1
    65   104   105    1
    66   118   120    1
    67    65    64    1
    68   142   141    1
    69   142   143    1
    70    85    86    1
    71    87    86   ar
    72    87    89   ar
    73   105   106    1
    74   105   107    1
    75    86    88   ar
    76    64    61    1
    77    89    91   ar
    78   131   132    2
    79   144   143    2
    80   143   149   am
    81    88    90   ar
    82    91    90   ar
    83    91    92    1
    84   165   163    1
    85    61    60    1
    86    61    62    1
    87    10     8   ar
    88    10    11   ar
    89   164   163    1
    90    63    62    2
    91    59    58    1
    92   239   238    1
    93   239   240    1
    94   149   150    1
    95     8     6   ar
    96    12    11    1
    97   163   160    1
    98   238   237    1
    99    60    56   am
   100    11     9   ar
   101   157   155   ar
   102   157   158   ar
   103   155   154   ar
   104   159   160    1
   105   159   151   am
   106   221   219    1
   107   150   151    1
   108   150   153    1
   109    58    55    1
   110    56    57    2
   111    56    55    1
   112     6     5    1
   113     6     7   ar
   114   160   161    1
   115   158   156   ar
   116   237   234    1
   117   151   152    2
   118   154   153    1
   119   154   156   ar
   120     5     2    1
   121   219   220    1
   122   219   218    1
   123   214   215    1
   124     9     7   ar
   125     1     2    1
   126    55    54    1
   127   234   233    1
   128   234   235    1
   129    50    52   ar
   130    50    48   ar
   131    54    45   am
   132    52    53   ar
   133   212   210   ar
   134   212   213   ar
   135   215   218    1
   136   215   216    1
   137   161   166   am
   138   161   162    2
   139   166   167    1
   140     2     3    1
   141   210   208   ar
   142    45    46    2
   143    45    44    1
   144    47    48    1
   145    47    44    1
   146   213   211   ar
   147   236   235    2
   148    48    49   ar
   149   222   223    1
   150    44    43    1
   151   198   196   ar
   152   198   197   ar
   153   196   194   ar
   154   206   205    2
   155   208   207    1
   156   208   209   ar
   157     3     4    2
   158    53    51   ar
   159   167   170    1
   160   167   168    1
   161   216   217    2
   162   211   209   ar
   163   170   171    1
   164   207   204    1
   165   230   228   ar
   166   230   232   ar
   167   223   224    1
   168   223   226    1
   169   228   227   ar
   170    49    51   ar
   171   205   204    1
   172   197   195   ar
   173   232   231   ar
   174   204   203    1
   175   225   224    2
   176   194   193   ar
   177    43    35   am
   178    36    35    2
   179   168   169    2
   180   227   226    1
   181   227   229   ar
   182   231   229   ar
   183    35    34    1
   184   177   176    1
   185   195   193   ar
   186   193   192    1
   187    20    18    1
   188    17    18    1
   189    17    14    1
   190   176   178    1
   191   176   173    1
   192    13    14    1
   193    18    19    1
   194    34    33    1
   195    34    37    1
   196   192   189    1
   197   202   201    2
   198    14    15    1
   199    24    23    2
   200    37    38    1
   201   172   173    1
   202   191   190    2
   203   201   200    1
   204   173   174    1
   205   175   174    2
   206   189   190    1
   207   189   188    1
   208    15    16    2
   209   200   199    1
   210    23    22    1
   211    38    39   ar
   212    38    40   ar
   213    25    22    1
   214    25    26    1
   215   188   181   am
   216   186   185   ar
   217    22    21    1
   218    28    26   ar
   219    28    30   ar
   220    39    41   ar
   221    40    42   ar
   222   182   181    2
   223   181   180    1
   224    26    27   ar
   225   185   184    1
   226   185   187   ar
   227   184   183    1
   228    30    31   ar
   229   183   180    1
   230    41    42   ar
   231   180   179    1
   232    27    29   ar
   233    31    29   ar
   234    31    32    1
