@<TRIPOS>MOLECULE
tmp/1kfyH01.pdb
 115 111 0 0 0
SMALL
GASTEIGER

@<TRIPOS>ATOM
      1  N         25.2770   -8.1320  -44.5860 N.3     8  ARG8       -0.1231
      2  CA        25.4260   -9.1280  -45.6340 C.3     8  ARG8        0.1694
      3  C         26.8300   -9.0400  -46.2480 C.2     8  ARG8        0.2593
      4  O         27.4090   -7.9470  -46.3170 O.2     8  ARG8       -0.2718
      5  CB        24.3770   -8.9160  -46.7180 C.3     8  ARG8        0.0321
      6  CG        24.5970   -9.8490  -47.8600 C.3     8  ARG8        0.0489
      7  CD        23.9830   -9.3610  -49.1200 C.3     8  ARG8        0.2205
      8  NE        22.8510  -10.1930  -49.4950 N.pl3   8  ARG8       -0.0865
      9  CZ        21.6420  -10.1300  -48.9460 C.cat   8  ARG8        0.5346
     10  NH1       21.3800   -9.2460  -47.9790 N.pl3   8  ARG8        0.1354
     11  NH2       20.6910  -10.9630  -49.3670 N.pl3   8  ARG8        0.1354
     12  N         27.3880  -10.1810  -46.6690 N.am    9  SER9       -0.1938
     13  CA        28.7150  -10.2240  -47.2940 C.3     9  SER9        0.2055
     14  C         28.6490  -10.0170  -48.8320 C.2     9  SER9        0.2643
     15  O         27.6270  -10.2860  -49.4940 O.2     9  SER9       -0.2714
     16  CB        29.4530  -11.5520  -46.9620 C.3     9  SER9        0.2130
     17  OG        30.8010  -11.5710  -47.4310 O.3     9  SER9       -0.2179
     18  N         29.7550   -9.4880  -49.3630 N.am   10  ASP10      -0.1971
     19  CA        29.9490   -9.2340  -50.7920 C.3    10  ASP10       0.1709
     20  C         30.7840  -10.3580  -51.4230 C.2    10  ASP10       0.2293
     21  O         31.0160  -10.3630  -52.6400 O.2    10  ASP10      -0.2864
     22  CB        30.6280   -7.8680  -51.0150 C.3    10  ASP10       0.1436
     23  CG        31.4210   -7.3840  -49.8070 C.2    10  ASP10       0.3671
     24  OD1       31.5940   -6.1540  -49.7370 O.co2  10  ASP10      -0.2456
     25  OD2       31.8600   -8.1990  -48.9590 O.co2  10  ASP10      -0.2456
     26  N         30.6210  -12.3360  -54.9130 N.3    13  VAL13      -0.1231
     27  CA        31.0620  -11.8010  -56.1940 C.3    13  VAL13       0.1692
     28  C         32.4450  -12.3580  -56.5200 C.2    13  VAL13       0.2592
     29  O         32.6710  -12.8940  -57.6130 O.2    13  VAL13      -0.2718
     30  CB        31.0460  -10.2370  -56.1740 C.3    13  VAL13       0.0266
     31  CG1       31.4360   -9.6590  -57.5130 C.3    13  VAL13       0.0020
     32  CG2       29.6650   -9.7690  -55.8850 C.3    13  VAL13       0.0020
     33  N         33.3590  -12.2770  -55.5570 N.am   14  PHE14      -0.1976
     34  CA        34.7260  -12.7830  -55.7430 C.3    14  PHE14       0.1639
     35  C         34.7650  -14.3200  -55.7550 C.2    14  PHE14       0.2290
     36  O         35.5940  -14.9460  -56.4280 O.2    14  PHE14      -0.2864
     37  CB        35.6370  -12.2250  -54.6320 C.3    14  PHE14       0.0560
     38  CG        35.6840  -10.7140  -54.5890 C.ar   14  PHE14      -0.0200
     39  CD1       35.7770   -9.9850  -55.7720 C.ar   14  PHE14      -0.0042
     40  CD2       35.6330  -10.0210  -53.3800 C.ar   14  PHE14      -0.0042
     41  CE1       35.8230   -8.5950  -55.7700 C.ar   14  PHE14      -0.0003
     42  CE2       35.6810   -8.6210  -53.3600 C.ar   14  PHE14      -0.0003
     43  CZ        35.7740   -7.9080  -54.5690 C.ar   14  PHE14      -0.0000
     44  N         33.6380  -15.4250  -59.2520 N.3    17  LEU17      -0.1245
     45  CA        34.7190  -15.2740  -60.2330 C.3    17  LEU17       0.1561
     46  C         35.6810  -16.4260  -60.0100 C.2    17  LEU17       0.2260
     47  O         35.9520  -17.2300  -60.9060 O.2    17  LEU17      -0.2867
     48  CB        35.4510  -13.9440  -59.9950 C.3    17  LEU17       0.0270
     49  CG        34.6430  -12.6720  -60.2690 C.3    17  LEU17       0.0019
     50  CD1       35.5020  -11.4270  -59.9480 C.3    17  LEU17       0.0001
     51  CD2       34.1530  -12.7170  -61.7410 C.3    17  LEU17       0.0001
     52  N         42.5600  -14.4510  -73.5700 N.3    69  PHE69      -0.1241
     53  CA        42.0660  -13.5520  -72.5240 C.3    69  PHE69       0.1605
     54  C         41.6360  -14.4150  -71.3420 C.2    69  PHE69       0.2264
     55  O         42.1790  -14.3210  -70.2390 O.2    69  PHE69      -0.2867
     56  CB        40.8770  -12.7400  -73.0680 C.3    69  PHE69       0.0534
     57  CG        40.2930  -11.7520  -72.0860 C.ar   69  PHE69      -0.0203
     58  CD1       41.0630  -10.7090  -71.5680 C.ar   69  PHE69      -0.0042
     59  CD2       38.9670  -11.8840  -71.6730 C.ar   69  PHE69      -0.0042
     60  CE1       40.5210   -9.8070  -70.6530 C.ar   69  PHE69      -0.0003
     61  CE2       38.4210  -10.9920  -70.7650 C.ar   69  PHE69      -0.0003
     62  CZ        39.1980   -9.9510  -70.2500 C.ar   69  PHE69      -0.0000
     63  N         43.2130  -14.2690  -67.6570 N.3    73  VAL73      -0.1231
     64  CA        42.4210  -13.6220  -66.6200 C.3    73  VAL73       0.1692
     65  C         41.7010  -14.5480  -65.6270 C.2    73  VAL73       0.2591
     66  O         41.8910  -14.3900  -64.4120 O.2    73  VAL73      -0.2718
     67  CB        41.4150  -12.6680  -67.2510 C.3    73  VAL73       0.0266
     68  CG1       40.7160  -11.8810  -66.1730 C.3    73  VAL73       0.0020
     69  CG2       42.1500  -11.7430  -68.2050 C.3    73  VAL73       0.0020
     70  N         40.8950  -15.4960  -66.1130 N.am   74  LEU74      -0.1980
     71  CA        40.1800  -16.3920  -65.2160 C.3    74  LEU74       0.1596
     72  C         41.0970  -16.9860  -64.1500 C.2    74  LEU74       0.2287
     73  O         40.8080  -16.9210  -62.9640 O.2    74  LEU74      -0.2864
     74  CB        39.4540  -17.4900  -66.0070 C.3    74  LEU74       0.0297
     75  CG        38.3830  -16.9050  -66.9430 C.3    74  LEU74       0.0022
     76  CD1       37.5870  -17.9930  -67.6420 C.3    74  LEU74       0.0001
     77  CD2       37.4510  -16.0100  -66.1490 C.3    74  LEU74       0.0001
     78  N         41.8740  -14.2790  -61.3580 N.3    77  TRP77      -0.1241
     79  CA        40.7870  -14.0320  -60.4300 C.3    77  TRP77       0.1605
     80  C         40.6490  -15.1610  -59.3980 C.2    77  TRP77       0.2264
     81  O         40.1420  -14.9500  -58.2990 O.2    77  TRP77      -0.2867
     82  CB        39.4630  -13.8500  -61.1910 C.3    77  TRP77       0.0550
     83  CG        39.3030  -12.4910  -61.8580 C.ar   77  TRP77       0.0003
     84  CD1       39.3100  -12.2190  -63.2080 C.ar   77  TRP77       0.0946
     85  CD2       39.2380  -11.2110  -61.2010 C.ar   77  TRP77       0.0152
     86  NE1       39.2750  -10.8560  -63.4190 N.ar   77  TRP77      -0.2442
     87  CE2       39.2310  -10.2160  -62.2070 C.ar   77  TRP77       0.0810
     88  CE3       39.1940  -10.8170  -59.8540 C.ar   77  TRP77       0.0012
     89  CZ2       39.1870   -8.8460  -61.9100 C.ar   77  TRP77       0.0191
     90  CZ3       39.1480   -9.4470  -59.5590 C.ar   77  TRP77       0.0001
     91  CH2       39.1440   -8.4830  -60.5830 C.ar   77  TRP77       0.0015
     92  N         42.3630   -7.8760  -55.4660 N.3   102  TYR102     -0.1241
     93  CA        41.3800   -7.7390  -56.5330 C.3   102  TYR102      0.1605
     94  C         41.7950   -6.6050  -57.4820 C.2   102  TYR102      0.2264
     95  O         41.5170   -6.6310  -58.6950 O.2   102  TYR102     -0.2867
     96  CB        40.0200   -7.4760  -55.9120 C.3   102  TYR102      0.0534
     97  CG        39.6180   -8.6120  -55.0260 C.ar  102  TYR102     -0.0201
     98  CD1       39.5220   -8.4500  -53.6480 C.ar  102  TYR102     -0.0009
     99  CD2       39.3410   -9.8740  -55.5620 C.ar  102  TYR102     -0.0009
    100  CE1       39.1630   -9.5000  -52.8190 C.ar  102  TYR102      0.0417
    101  CE2       38.9790  -10.9450  -54.7440 C.ar  102  TYR102      0.0417
    102  CZ        38.8880  -10.7520  -53.3700 C.ar  102  TYR102      0.1957
    103  OH        38.5160  -11.7900  -52.5490 O.3   102  TYR102     -0.2866
    104  N         42.1670   -6.7820  -61.4080 N.3   106  ALA106     -0.1245
    105  CA        41.5190   -5.9180  -62.3770 C.3   106  ALA106      0.1562
    106  C         42.5200   -5.2330  -63.3140 C.2   106  ALA106      0.2260
    107  O         42.2790   -5.0980  -64.5200 O.2   106  ALA106     -0.2867
    108  CB        40.6560   -4.8850  -61.6590 C.3   106  ALA106      0.0290
    109  N         43.8260   -7.6160  -65.6660 N.3   109  THR109     -0.1218
    110  CA        42.7210   -7.9560  -66.5440 C.3   109  THR109      0.1862
    111  C         42.6570   -6.9320  -67.6640 C.2   109  THR109      0.2287
    112  O         42.5000   -7.2700  -68.8460 O.2   109  THR109     -0.2866
    113  CB        41.4050   -7.9080  -65.7830 C.3   109  THR109      0.1770
    114  OG1       41.5330   -8.6490  -64.5600 O.3   109  THR109     -0.2211
    115  CG2       40.2650   -8.4760  -66.6450 C.3   109  THR109      0.0375
@<TRIPOS>BOND
     1    52    53    1
     2    56    53    1
     3    56    57    1
     4    53    54    1
     5    57    59   ar
     6    57    58   ar
     7    59    61   ar
     8    58    60   ar
     9    54    55    2
    10    61    62   ar
    11    60    62   ar
    12   112   111    2
    13    69    67    1
    14   111   110    1
    15    63    64    1
    16    76    75    1
    17    67    64    1
    18    67    68    1
    19    75    77    1
    20    75    74    1
    21   115   113    1
    22    64    65    1
    23   110   113    1
    24   110   109    1
    25    70    65   am
    26    70    71    1
    27    74    71    1
    28   113   114    1
    29    65    66    2
    30    71    72    1
    31   107   106    2
    32    72    73    2
    33    86    84   ar
    34    86    87   ar
    35   106   105    1
    36    84    83   ar
    37   105   108    1
    38   105   104    1
    39    87    89   ar
    40    87    85   ar
    41    89    91   ar
    42    83    85   ar
    43    83    82    1
    44    51    49    1
    45    78    79    1
    46    85    88   ar
    47    82    79    1
    48    47    46    2
    49    91    90   ar
    50    79    80    1
    51    49    48    1
    52    49    50    1
    53    45    46    1
    54    45    48    1
    55    45    44    1
    56    88    90   ar
    57    80    81    2
    58    95    94    2
    59    29    28    2
    60    31    30    1
    61    94    93    1
    62    93    96    1
    63    93    92    1
    64    28    27    1
    65    28    33   am
    66    36    35    2
    67    27    30    1
    68    27    26    1
    69    30    32    1
    70    96    97    1
    71    39    41   ar
    72    39    38   ar
    73    41    43   ar
    74    35    34    1
    75    34    33    1
    76    34    37    1
    77    99    97   ar
    78    99   101   ar
    79    97    98   ar
    80   101   102   ar
    81    37    38    1
    82    38    40   ar
    83    43    42   ar
    84    98   100   ar
    85    40    42   ar
    86   102   100   ar
    87   102   103    1
    88    21    20    2
    89    20    19    1
    90    22    19    1
    91    22    23    1
    92    19    18    1
    93    23    24   ar
    94    23    25   ar
    95     8     7    1
    96     8     9    2
    97    15    14    2
    98    11     9    1
    99    18    14   am
   100     7     6    1
   101     9    10    1
   102    14    13    1
   103     6     5    1
   104    17    16    1
   105    13    16    1
   106    13    12    1
   107     5     2    1
   108    12     3   am
   109     4     3    2
   110     3     2    1
   111     2     1    1
