@<TRIPOS>MOLECULE
tmp/1kfyD02.pdb
 101 99 0 0 0
SMALL
GASTEIGER

@<TRIPOS>ATOM
      1  N         24.9030   -2.0790  -40.9370 N.3     7  LYS7       -0.1245
      2  CA        26.0040   -2.4440  -41.8460 C.3     7  LYS7        0.1561
      3  C         26.6220   -1.1600  -42.3590 C.2     7  LYS7        0.2260
      4  O         25.8920   -0.2530  -42.7800 O.2     7  LYS7       -0.2867
      5  CB        25.5390   -3.2620  -43.0730 C.3     7  LYS7        0.0271
      6  CG        26.7160   -3.6580  -44.0160 C.3     7  LYS7        0.0035
      7  CD        26.3660   -3.9000  -45.5160 C.3     7  LYS7        0.0206
      8  CE        25.5310   -5.1750  -45.8220 C.3     7  LYS7        0.1093
      9  NZ        25.2300   -5.3900  -47.3030 N.3     7  LYS7       -0.1314
     10  N         29.2080    1.4470  -48.3030 N.3    10  ASP10      -0.1239
     11  CA        30.3430    1.5030  -49.2010 C.3    10  ASP10       0.1674
     12  C         30.3070    2.7900  -50.0370 C.2    10  ASP10       0.2266
     13  O         31.2020    3.0050  -50.8450 O.2    10  ASP10      -0.2867
     14  CB        30.3670    0.2540  -50.0980 C.3    10  ASP10       0.1410
     15  CG        29.0990    0.0970  -50.9270 C.2    10  ASP10       0.3668
     16  OD1       27.9820    0.1720  -50.3510 O.co2  10  ASP10      -0.2456
     17  OD2       29.2240   -0.1110  -52.1570 O.co2  10  ASP10      -0.2456
     18  N         32.1390    5.6750  -54.0130 N.3    14  PHE14      -0.1241
     19  CA        31.6020    6.3690  -55.1640 C.3    14  PHE14       0.1605
     20  C         31.5200    7.8610  -54.8870 C.2    14  PHE14       0.2264
     21  O         31.6700    8.6810  -55.7930 O.2    14  PHE14      -0.2867
     22  CB        30.2180    5.8590  -55.5230 C.3    14  PHE14       0.0534
     23  CG        30.1860    4.4130  -55.8090 C.ar   14  PHE14      -0.0203
     24  CD1       30.9920    3.8790  -56.8080 C.ar   14  PHE14      -0.0042
     25  CD2       29.4070    3.5670  -55.0420 C.ar   14  PHE14      -0.0042
     26  CE1       31.0370    2.5110  -57.0440 C.ar   14  PHE14      -0.0003
     27  CE2       29.4360    2.2060  -55.2570 C.ar   14  PHE14      -0.0003
     28  CZ        30.2570    1.6720  -56.2640 C.ar   14  PHE14      -0.0000
     29  N         32.2860    9.4770  -63.7110 N.3    77  TRP77      -0.1241
     30  CA        32.0950    9.0170  -62.3450 C.3    77  TRP77       0.1605
     31  C         31.1880    9.9420  -61.5300 C.2    77  TRP77       0.2264
     32  O         30.5030    9.5170  -60.6030 O.2    77  TRP77      -0.2867
     33  CB        33.4520    8.8360  -61.6460 C.3    77  TRP77       0.0550
     34  CG        34.0880    7.5620  -62.1100 C.ar   77  TRP77       0.0003
     35  CD1       34.9910    7.4230  -63.1360 C.ar   77  TRP77       0.0946
     36  CD2       33.6670    6.2160  -61.7730 C.ar   77  TRP77       0.0152
     37  NE1       35.1420    6.0800  -63.4730 N.ar   77  TRP77      -0.2442
     38  CE2       34.3420    5.3250  -62.6540 C.ar   77  TRP77       0.0810
     39  CE3       32.7820    5.6780  -60.8200 C.ar   77  TRP77       0.0012
     40  CZ2       34.1470    3.9290  -62.6120 C.ar   77  TRP77       0.0191
     41  CZ3       32.5870    4.2860  -60.7790 C.ar   77  TRP77       0.0001
     42  CH2       33.2670    3.4290  -61.6690 C.ar   77  TRP77       0.0015
     43  N         23.1400   -0.2290  -59.1700 N.3    98  LYS98      -0.1231
     44  CA        24.5480   -0.0200  -58.8930 C.3    98  LYS98       0.1693
     45  C         25.4590   -0.5800  -59.9730 C.2    98  LYS98       0.2592
     46  O         26.3290    0.1180  -60.5070 O.2    98  LYS98      -0.2718
     47  CB        24.9140   -0.6040  -57.5270 C.3    98  LYS98       0.0285
     48  CG        25.7790    0.3600  -56.7020 C.3    98  LYS98       0.0035
     49  CD        25.6610    0.1940  -55.1760 C.3    98  LYS98       0.0206
     50  CE        26.4550    1.2690  -54.4200 C.3    98  LYS98       0.1093
     51  NZ        26.4130    1.1070  -52.9350 N.3    98  LYS98      -0.1314
     52  N         25.2460   -1.8360  -60.3210 N.am   99  TRP99      -0.1976
     53  CA        26.0820   -2.4400  -61.3250 C.3    99  TRP99       0.1640
     54  C         25.9020   -1.7160  -62.6370 C.2    99  TRP99       0.2290
     55  O         26.8720   -1.4560  -63.3420 O.2    99  TRP99      -0.2864
     56  CB        25.7620   -3.9290  -61.4450 C.3    99  TRP99       0.0576
     57  CG        26.1200   -4.6530  -60.1910 C.ar   99  TRP99       0.0006
     58  CD1       25.3280   -4.8430  -59.0980 C.ar   99  TRP99       0.0946
     59  CD2       27.4070   -5.1830  -59.8530 C.ar   99  TRP99       0.0152
     60  NE1       26.0390   -5.4630  -58.0960 N.ar   99  TRP99      -0.2442
     61  CE2       27.3180   -5.6840  -58.5340 C.ar   99  TRP99       0.0810
     62  CE3       28.6250   -5.2900  -60.5400 C.ar   99  TRP99       0.0012
     63  CZ2       28.4010   -6.2780  -57.8840 C.ar   99  TRP99       0.0191
     64  CZ3       29.6980   -5.8810  -59.8960 C.ar   99  TRP99       0.0001
     65  CH2       29.5830   -6.3640  -58.5770 C.ar   99  TRP99       0.0015
     66  N         27.5520    2.2190  -62.1870 N.3   102  TYR102     -0.1227
     67  CA        28.9920    2.1890  -61.9600 C.3   102  TYR102      0.1736
     68  C         29.7500    1.2750  -62.9370 C.2   102  TYR102      0.2596
     69  O         30.9640    1.4340  -63.1830 O.2   102  TYR102     -0.2718
     70  CB        29.2530    1.8060  -60.5170 C.3   102  TYR102      0.0548
     71  CG        28.7140    2.8550  -59.5780 C.ar  102  TYR102     -0.0200
     72  CD1       27.8080    2.5220  -58.5780 C.ar  102  TYR102     -0.0009
     73  CD2       29.0900    4.1820  -59.6980 C.ar  102  TYR102     -0.0009
     74  CE1       27.2830    3.4780  -57.7220 C.ar  102  TYR102      0.0417
     75  CE2       28.5710    5.1520  -58.8460 C.ar  102  TYR102      0.0417
     76  CZ        27.6650    4.7880  -57.8590 C.ar  102  TYR102      0.1957
     77  OH        27.1110    5.7180  -57.0090 O.3   102  TYR102     -0.2866
     78  N         29.0060    0.3280  -63.4960 N.am  103  GLY103     -0.1957
     79  CA        29.5750   -0.6000  -64.4530 C.3   103  GLY103      0.1869
     80  C         29.8570    0.1600  -65.7270 C.2   103  GLY103      0.2309
     81  O         30.9710    0.1750  -66.2440 O.2   103  GLY103     -0.2863
     82  N         32.8770    2.1260  -65.3060 N.3   106  ALA106     -0.1231
     83  CA        34.0980    1.3570  -65.4170 C.3   106  ALA106      0.1694
     84  C         34.4040    0.9740  -66.8740 C.2   106  ALA106      0.2591
     85  O         35.5350    1.0940  -67.3520 O.2   106  ALA106     -0.2718
     86  CB        33.9710    0.1360  -64.5750 C.3   106  ALA106      0.0304
     87  N         33.3820    0.5140  -67.5810 N.am  107  ILE107     -0.1980
     88  CA        33.5340    0.1200  -68.9810 C.3   107  ILE107      0.1595
     89  C         34.0990    1.2970  -69.7830 C.2   107  ILE107      0.2287
     90  O         35.1880    1.2080  -70.3620 O.2   107  ILE107     -0.2864
     91  CB        32.1410   -0.3470  -69.5700 C.3   107  ILE107      0.0276
     92  CG1       31.8350   -1.7620  -69.0640 C.3   107  ILE107      0.0022
     93  CG2       32.1080   -0.2690  -71.1220 C.3   107  ILE107      0.0022
     94  CD1       30.4710   -2.2270  -69.4430 C.3   107  ILE107      0.0001
     95  N         37.6060    2.1240  -68.9900 N.3   110  VAL110     -0.1245
     96  CA        38.5270    1.2390  -69.6490 C.3   110  VAL110      0.1561
     97  C         38.6560    1.6680  -71.1090 C.2   110  VAL110      0.2260
     98  O         39.7590    1.9970  -71.5650 O.2   110  VAL110     -0.2867
     99  CB        38.0370   -0.2110  -69.4770 C.3   110  VAL110      0.0252
    100  CG1       38.5660   -1.0980  -70.5830 C.3   110  VAL110      0.0019
    101  CG2       38.5360   -0.7220  -68.1280 C.3   110  VAL110      0.0019
@<TRIPOS>BOND
     1    98    97    2
     2    93    91    1
     3    97    96    1
     4   100    99    1
     5    90    89    2
     6    89    88    1
     7    96    99    1
     8    96    95    1
     9    91    92    1
    10    91    88    1
    11    99   101    1
    12    94    92    1
    13    88    87    1
    14    87    84   am
    15    85    84    2
    16    84    83    1
    17    81    80    2
    18    80    79    1
    19    83    82    1
    20    83    86    1
    21    79    78    1
    22    29    30    1
    23    78    68   am
    24    37    35   ar
    25    37    38   ar
    26    55    54    2
    27    69    68    2
    28    35    34   ar
    29    68    67    1
    30    38    40   ar
    31    38    36   ar
    32    54    53    1
    33    40    42   ar
    34    30    33    1
    35    30    31    1
    36    66    67    1
    37    34    36   ar
    38    34    33    1
    39    67    70    1
    40    36    39   ar
    41    42    41   ar
    42    31    32    2
    43    56    53    1
    44    56    57    1
    45    53    52    1
    46    39    41   ar
    47    62    64   ar
    48    62    59   ar
    49    70    71    1
    50    46    45    2
    51    52    45   am
    52    57    59   ar
    53    57    58   ar
    54    45    44    1
    55    64    65   ar
    56    59    61   ar
    57    73    71   ar
    58    73    75   ar
    59    71    72   ar
    60    43    44    1
    61    58    60   ar
    62    44    47    1
    63    75    76   ar
    64    72    74   ar
    65    65    63   ar
    66    61    60   ar
    67    61    63   ar
    68    76    74   ar
    69    76    77    1
    70    47    48    1
    71    26    24   ar
    72    26    28   ar
    73    24    23   ar
    74    48    49    1
    75    28    27   ar
    76    23    22    1
    77    23    25   ar
    78    21    20    2
    79    22    19    1
    80    27    25   ar
    81    49    50    1
    82    19    20    1
    83    19    18    1
    84    50    51    1
    85    17    15   ar
    86    15    16   ar
    87    15    14    1
    88    13    12    2
    89    14    11    1
    90    12    11    1
    91    11    10    1
    92     9     8    1
    93     8     7    1
    94     7     6    1
    95     6     5    1
    96     5     2    1
    97     4     3    2
    98     3     2    1
    99     2     1    1
