@<TRIPOS>MOLECULE
tmp/1kfyD01.pdb
 103 99 0 0 0
SMALL
GASTEIGER

@<TRIPOS>ATOM
      1  N         27.9520   -1.0710  -42.3080 N.3     8  ARG8       -0.1231
      2  CA        28.6290    0.1320  -42.8170 C.3     8  ARG8        0.1694
      3  C         28.2990    0.2840  -44.2850 C.2     8  ARG8        0.2593
      4  O         28.0080   -0.7080  -44.9340 O.2     8  ARG8       -0.2718
      5  CB        30.1480    0.0000  -42.6760 C.3     8  ARG8        0.0321
      6  CG        30.9740    0.8380  -43.6590 C.3     8  ARG8        0.0489
      7  CD        32.4910    0.6990  -43.3570 C.3     8  ARG8        0.2205
      8  NE        33.0590    1.8440  -42.6360 N.pl3   8  ARG8       -0.0865
      9  CZ        33.7510    1.7510  -41.5020 C.cat   8  ARG8        0.5346
     10  NH1       33.9670    0.5690  -40.9420 N.pl3   8  ARG8        0.1354
     11  NH2       34.2290    2.8490  -40.9260 N.pl3   8  ARG8        0.1354
     12  N         28.3270    1.5000  -44.8220 N.am    9  SER9       -0.1938
     13  CA        28.0300    1.6370  -46.2350 C.3     9  SER9        0.2055
     14  C         29.3110    1.7460  -47.0150 C.2     9  SER9        0.2643
     15  O         30.3630    2.0930  -46.4790 O.2     9  SER9       -0.2714
     16  CB        27.1610    2.8570  -46.5470 C.3     9  SER9        0.2130
     17  OG        26.8440    2.8730  -47.9360 O.3     9  SER9       -0.2179
     18  N         29.2080    1.4470  -48.3030 N.am   10  ASP10      -0.1971
     19  CA        30.3430    1.5030  -49.2010 C.3    10  ASP10       0.1709
     20  C         30.3070    2.7900  -50.0370 C.2    10  ASP10       0.2293
     21  O         31.2020    3.0050  -50.8450 O.2    10  ASP10      -0.2864
     22  CB        30.3670    0.2540  -50.0980 C.3    10  ASP10       0.1436
     23  CG        29.0990    0.0970  -50.9270 C.2    10  ASP10       0.3671
     24  OD1       27.9820    0.1720  -50.3510 O.co2  10  ASP10      -0.2456
     25  OD2       29.2240   -0.1110  -52.1570 O.co2  10  ASP10      -0.2456
     26  N         33.0780    5.3710  -51.4070 N.3    13  VAL13      -0.1231
     27  CA        33.9760    5.1150  -52.5400 C.3    13  VAL13       0.1692
     28  C         33.4300    5.8100  -53.7650 C.2    13  VAL13       0.2592
     29  O         34.1670    6.4590  -54.4970 O.2    13  VAL13      -0.2718
     30  CB        34.1340    3.6250  -52.8740 C.3    13  VAL13       0.0266
     31  CG1       34.5600    3.4720  -54.3390 C.3    13  VAL13       0.0020
     32  CG2       35.1850    3.0020  -51.9360 C.3    13  VAL13       0.0020
     33  N         32.1390    5.6750  -54.0130 N.am   14  PHE14      -0.1976
     34  CA        31.6020    6.3690  -55.1640 C.3    14  PHE14       0.1639
     35  C         31.5200    7.8610  -54.8870 C.2    14  PHE14       0.2290
     36  O         31.6700    8.6810  -55.7930 O.2    14  PHE14      -0.2864
     37  CB        30.2180    5.8590  -55.5230 C.3    14  PHE14       0.0560
     38  CG        30.1860    4.4130  -55.8090 C.ar   14  PHE14      -0.0200
     39  CD1       30.9920    3.8790  -56.8080 C.ar   14  PHE14      -0.0042
     40  CD2       29.4070    3.5670  -55.0420 C.ar   14  PHE14      -0.0042
     41  CE1       31.0370    2.5110  -57.0440 C.ar   14  PHE14      -0.0003
     42  CE2       29.4360    2.2060  -55.2570 C.ar   14  PHE14      -0.0003
     43  CZ        30.2570    1.6720  -56.2640 C.ar   14  PHE14      -0.0000
     44  N         34.8730    9.3860  -55.5390 N.3    17  LEU17      -0.1245
     45  CA        35.1420    9.6010  -56.9490 C.3    17  LEU17       0.1561
     46  C         34.3350   10.7780  -57.4350 C.2    17  LEU17       0.2260
     47  O         34.8900   11.7360  -57.9550 O.2    17  LEU17      -0.2867
     48  CB        34.7520    8.3850  -57.7530 C.3    17  LEU17       0.0270
     49  CG        35.6030    7.1820  -57.4410 C.3    17  LEU17       0.0019
     50  CD1       35.1070    5.9790  -58.3200 C.3    17  LEU17       0.0001
     51  CD2       37.0880    7.5930  -57.6580 C.3    17  LEU17       0.0001
     52  N         42.2160   11.7450  -70.5850 N.3    69  PHE69      -0.1241
     53  CA        41.6840   10.6630  -69.7610 C.3    69  PHE69       0.1605
     54  C         40.8050   11.2400  -68.6860 C.2    69  PHE69       0.2264
     55  O         39.5940   11.0130  -68.6580 O.2    69  PHE69      -0.2867
     56  CB        42.8280    9.8630  -69.1140 C.3    69  PHE69       0.0534
     57  CG        42.3620    8.7100  -68.2520 C.ar   69  PHE69      -0.0203
     58  CD1       41.5320    7.7320  -68.7730 C.ar   69  PHE69      -0.0042
     59  CD2       42.7440    8.6140  -66.9150 C.ar   69  PHE69      -0.0042
     60  CE1       41.0800    6.6830  -67.9790 C.ar   69  PHE69      -0.0003
     61  CE2       42.3010    7.5710  -66.1220 C.ar   69  PHE69      -0.0003
     62  CZ        41.4680    6.6080  -66.6530 C.ar   69  PHE69      -0.0000
     63  N         36.8460   10.7080  -68.1090 N.3    73  VAL73      -0.1231
     64  CA        36.4930    9.8370  -67.0080 C.3    73  VAL73       0.1692
     65  C         35.9570   10.4830  -65.7360 C.2    73  VAL73       0.2591
     66  O         34.8480   10.1360  -65.3080 O.2    73  VAL73      -0.2718
     67  CB        37.6970    8.8920  -66.7170 C.3    73  VAL73       0.0266
     68  CG1       37.6180    8.2880  -65.3220 C.3    73  VAL73       0.0020
     69  CG2       37.7290    7.7930  -67.7720 C.3    73  VAL73       0.0020
     70  N         36.7050   11.4090  -65.1280 N.am   74  LEU74      -0.1980
     71  CA        36.2300   12.0330  -63.8890 C.3    74  LEU74       0.1596
     72  C         34.7910   12.4860  -64.0180 C.2    74  LEU74       0.2287
     73  O         33.9550   12.1270  -63.2220 O.2    74  LEU74      -0.2864
     74  CB        37.0960   13.2180  -63.4530 C.3    74  LEU74       0.0297
     75  CG        38.4490   12.8610  -62.8610 C.3    74  LEU74       0.0022
     76  CD1       39.0540   14.0820  -62.2310 C.3    74  LEU74       0.0001
     77  CD2       38.2880   11.8090  -61.8130 C.3    74  LEU74       0.0001
     78  N         32.2860    9.4770  -63.7110 N.3    77  TRP77      -0.1241
     79  CA        32.0950    9.0170  -62.3450 C.3    77  TRP77       0.1605
     80  C         31.1880    9.9420  -61.5300 C.2    77  TRP77       0.2264
     81  O         30.5030    9.5170  -60.6030 O.2    77  TRP77      -0.2867
     82  CB        33.4520    8.8360  -61.6460 C.3    77  TRP77       0.0550
     83  CG        34.0880    7.5620  -62.1100 C.ar   77  TRP77       0.0003
     84  CD1       34.9910    7.4230  -63.1360 C.ar   77  TRP77       0.0946
     85  CD2       33.6670    6.2160  -61.7730 C.ar   77  TRP77       0.0152
     86  NE1       35.1420    6.0800  -63.4730 N.ar   77  TRP77      -0.2442
     87  CE2       34.3420    5.3250  -62.6540 C.ar   77  TRP77       0.0810
     88  CE3       32.7820    5.6780  -60.8200 C.ar   77  TRP77       0.0012
     89  CZ2       34.1470    3.9290  -62.6120 C.ar   77  TRP77       0.0191
     90  CZ3       32.5870    4.2860  -60.7790 C.ar   77  TRP77       0.0001
     91  CH2       33.2670    3.4290  -61.6690 C.ar   77  TRP77       0.0015
     92  N         32.8770    2.1260  -65.3060 N.3   106  ALA106     -0.1245
     93  CA        34.0980    1.3570  -65.4170 C.3   106  ALA106      0.1562
     94  C         34.4040    0.9740  -66.8740 C.2   106  ALA106      0.2260
     95  O         35.5350    1.0940  -67.3520 O.2   106  ALA106     -0.2867
     96  CB        33.9710    0.1360  -64.5750 C.3   106  ALA106      0.0290
     97  N         35.4320    3.8450  -68.7770 N.3   109  THR109     -0.1218
     98  CA        36.7450    4.2220  -68.2600 C.3   109  THR109      0.1862
     99  C         37.8100    3.4250  -69.0020 C.2   109  THR109      0.2287
    100  O         38.7900    3.9550  -69.5650 O.2   109  THR109     -0.2866
    101  CB        36.8350    3.8910  -66.7680 C.3   109  THR109      0.1770
    102  OG1       35.8490    4.6400  -66.0460 O.3   109  THR109     -0.2211
    103  CG2       38.2120    4.2070  -66.2220 C.3   109  THR109      0.0375
@<TRIPOS>BOND
     1    52    53    1
     2    53    56    1
     3    53    54    1
     4   100    99    2
     5    56    57    1
     6    99    98    1
     7    97    98    1
     8    58    57   ar
     9    58    60   ar
    10    54    55    2
    11    98   101    1
    12    57    59   ar
    13    63    64    1
    14    60    62   ar
    15    69    67    1
    16    95    94    2
    17    64    67    1
    18    64    65    1
    19    59    61   ar
    20    94    93    1
    21   101   103    1
    22   101   102    1
    23    67    68    1
    24    62    61   ar
    25    65    66    2
    26    65    70   am
    27    93    92    1
    28    93    96    1
    29    70    71    1
    30    72    71    1
    31    72    73    2
    32    71    74    1
    33    78    79    1
    34    86    84   ar
    35    86    87   ar
    36    74    75    1
    37    84    83   ar
    38    75    76    1
    39    75    77    1
    40    87    89   ar
    41    87    85   ar
    42    89    91   ar
    43    79    82    1
    44    79    80    1
    45    83    85   ar
    46    83    82    1
    47    85    88   ar
    48    91    90   ar
    49    80    81    2
    50    88    90   ar
    51    50    49    1
    52    47    46    2
    53    48    49    1
    54    48    45    1
    55    51    49    1
    56    46    45    1
    57    41    39   ar
    58    41    43   ar
    59    45    44    1
    60    39    38   ar
    61    43    42   ar
    62    38    37    1
    63    38    40   ar
    64    36    35    2
    65    37    34    1
    66    42    40   ar
    67    34    35    1
    68    34    33    1
    69    29    28    2
    70    31    30    1
    71    33    28   am
    72    28    27    1
    73    30    27    1
    74    30    32    1
    75    27    26    1
    76    25    23   ar
    77    23    24   ar
    78    23    22    1
    79    21    20    2
    80    22    19    1
    81    20    19    1
    82    19    18    1
    83    18    14   am
    84    17    16    1
    85    14    15    2
    86    14    13    1
    87    16    13    1
    88    13    12    1
    89     4     3    2
    90    12     3   am
    91     3     2    1
    92     6     7    1
    93     6     5    1
    94     7     8    1
    95     2     5    1
    96     2     1    1
    97     8     9    2
    98     9    10    1
    99     9    11    1
