@<TRIPOS>MOLECULE
tmp/1kfyA00.pdb
 113 106 0 0 0
SMALL
GASTEIGER

@<TRIPOS>ATOM
      1  N         17.2920   32.7660  -20.0840 N.3    50  GLU50      -0.1231
      2  CA        18.3210   33.4900  -20.8660 C.3    50  GLU50       0.1699
      3  C         19.4290   34.1740  -20.0950 C.2    50  GLU50       0.2593
      4  O         20.5210   34.3870  -20.6290 O.2    50  GLU50      -0.2718
      5  CB        17.6570   34.4840  -21.8180 C.3    50  GLU50       0.0402
      6  CG        16.5700   35.2950  -21.1900 C.3    50  GLU50       0.1161
      7  CD        15.5410   35.7250  -22.2090 C.2    50  GLU50       0.3649
      8  OE1       14.8880   34.8380  -22.8060 O.co2  50  GLU50      -0.2457
      9  OE2       15.3840   36.9460  -22.4130 O.co2  50  GLU50      -0.2457
     10  N         19.1670   34.5020  -18.8360 N.am   51  GLY51      -0.1942
     11  CA        20.1490   35.1480  -17.9800 C.3    51  GLY51       0.2014
     12  C         21.3500   34.3000  -17.5800 C.2    51  GLY51       0.2639
     13  O         22.4630   34.5830  -18.0160 O.2    51  GLY51      -0.2714
     14  N         21.1540   33.2690  -16.7580 N.am   52  GLY52      -0.1954
     15  CA        22.2590   32.4330  -16.3250 C.3    52  GLY52       0.1869
     16  C         22.0360   31.6740  -15.0200 C.2    52  GLY52       0.2309
     17  O         20.9590   31.6970  -14.4360 O.2    52  GLY52      -0.2863
     18  N         24.1670   39.4500  -12.2730 N.3   117  PHE117     -0.1241
     19  CA        22.7110   39.3430  -12.2790 C.3   117  PHE117      0.1605
     20  C         22.1370   39.4390  -10.8770 C.2   117  PHE117      0.2264
     21  O         22.8520   39.2810   -9.8880 O.2   117  PHE117     -0.2867
     22  CB        22.2490   38.0280  -12.8900 C.3   117  PHE117      0.0534
     23  CG        22.1480   38.0530  -14.3630 C.ar  117  PHE117     -0.0203
     24  CD1       23.2690   37.9080  -15.1370 C.ar  117  PHE117     -0.0042
     25  CD2       20.9310   38.2140  -14.9800 C.ar  117  PHE117     -0.0042
     26  CE1       23.1710   37.9260  -16.5040 C.ar  117  PHE117     -0.0003
     27  CE2       20.8320   38.2270  -16.3380 C.ar  117  PHE117     -0.0003
     28  CZ        21.9440   38.0840  -17.0970 C.ar  117  PHE117     -0.0000
     29  N          7.1010   36.8500   -8.1670 N.3   231  GLN231     -0.1245
     30  CA         8.1070   37.7380   -8.7480 C.3   231  GLN231      0.1566
     31  C          7.7900   38.1960  -10.1550 C.2   231  GLN231      0.2260
     32  O          7.5820   37.3850  -11.0440 O.2   231  GLN231     -0.2867
     33  CB         9.4690   37.0460   -8.7710 C.3   231  GLN231      0.0367
     34  CG        10.5010   37.7660   -9.6050 C.3   231  GLN231      0.0905
     35  CD        11.8470   37.1540   -9.4420 C.2   231  GLN231      0.2608
     36  OE1       12.2460   36.8410   -8.3260 O.2   231  GLN231     -0.2717
     37  NE2       12.5740   36.9750  -10.5520 N.am  231  GLN231     -0.0878
     38  N          8.9230   40.4400  -13.5890 N.3   233  HIS233     -0.1241
     39  CA        10.1150   40.8890  -14.2770 C.3   233  HIS233      0.1621
     40  C          9.8070   42.2660  -14.8170 C.2   233  HIS233      0.2264
     41  O          8.8150   42.4440  -15.5200 O.2   233  HIS233     -0.2867
     42  CB        10.4320   39.9830  -15.4390 C.3   233  HIS233      0.0745
     43  CG        11.7820   40.2350  -16.0130 C.ar  233  HIS233      0.0817
     44  ND1       12.8820   39.4680  -15.6810 N.ar  233  HIS233     -0.2268
     45  CD2       12.2210   41.1810  -16.8670 C.ar  233  HIS233      0.1154
     46  CE1       13.9450   39.9390  -16.3220 C.ar  233  HIS233      0.1986
     47  NE2       13.5610   40.9730  -17.0460 N.ar  233  HIS233     -0.2212
     48  N          9.7450   37.5900  -22.1560 N.3   243  LEU243     -0.1245
     49  CA        10.8750   38.1880  -21.4620 C.3   243  LEU243      0.1561
     50  C         12.0510   38.7800  -22.2440 C.2   243  LEU243      0.2260
     51  O         12.6760   38.1010  -23.0570 O.2   243  LEU243     -0.2867
     52  CB        11.4420   37.1810  -20.4650 C.3   243  LEU243      0.0270
     53  CG        12.6510   37.7400  -19.7070 C.3   243  LEU243      0.0019
     54  CD1       12.2610   38.8200  -18.7810 C.3   243  LEU243      0.0001
     55  CD2       13.2530   36.6900  -18.9100 C.3   243  LEU243      0.0001
     56  N         15.4060   39.7940  -21.3460 N.3   245  THR245     -0.1203
     57  CA        16.4380   39.6120  -20.3230 C.3   245  THR245      0.1994
     58  C         17.0430   40.8550  -19.7280 C.2   245  THR245      0.2617
     59  O         17.1970   41.8550  -20.4180 O.2   245  THR245     -0.2717
     60  CB        17.6200   38.8350  -20.8000 C.3   245  THR245      0.1784
     61  OG1       18.5350   38.6800  -19.7070 O.3   245  THR245     -0.2211
     62  CG2       18.2980   39.5770  -21.9120 C.3   245  THR245      0.0376
     63  N         17.4140   40.7770  -18.4490 N.am  246  GLU246     -0.1979
     64  CA        18.0200   41.8990  -17.7560 C.3   246  GLU246      0.1602
     65  C         19.2650   42.3110  -18.5500 C.2   246  GLU246      0.2287
     66  O         19.6990   43.4710  -18.5390 O.2   246  GLU246     -0.2864
     67  CB        18.3680   41.4960  -16.3120 C.3   246  GLU246      0.0415
     68  CG        19.0190   42.5830  -15.4790 C.3   246  GLU246      0.1163
     69  CD        19.2030   42.2180  -14.0000 C.2   246  GLU246      0.3649
     70  OE1       19.7230   41.1260  -13.6980 O.co2 246  GLU246     -0.2457
     71  OE2       18.8420   43.0370  -13.1280 O.co2 246  GLU246     -0.2457
     72  N         15.2040   45.3600   -8.4450 N.3   288  ARG288     -0.1245
     73  CA        14.1220   44.8890   -9.3070 C.3   288  ARG288      0.1563
     74  C         12.7740   45.5310   -9.0110 C.2   288  ARG288      0.2260
     75  O         12.1760   46.1820   -9.8770 O.2   288  ARG288     -0.2867
     76  CB        13.9980   43.3800   -9.1810 C.3   288  ARG288      0.0307
     77  CG        13.3760   42.6900  -10.3790 C.3   288  ARG288      0.0489
     78  CD        12.2660   41.7300   -9.9500 C.3   288  ARG288      0.2205
     79  NE        12.6930   40.8850   -8.8520 N.pl3 288  ARG288     -0.0865
     80  CZ        13.4700   39.8200   -8.9890 C.cat 288  ARG288      0.5346
     81  NH1       13.8880   39.4550  -10.2010 N.pl3 288  ARG288      0.1354
     82  NH2       13.8320   39.1260   -7.9130 N.pl3 288  ARG288      0.1354
     83  N          6.3400   36.5320  -13.5890 N.3   356  HIS356     -0.1241
     84  CA         7.4790   35.6930  -13.9420 C.3   356  HIS356      0.1621
     85  C          7.8740   34.4800  -13.1660 C.2   356  HIS356      0.2264
     86  O          8.0010   33.4290  -13.7360 O.2   356  HIS356     -0.2867
     87  CB         8.7020   36.5870  -14.0040 C.3   356  HIS356      0.0745
     88  CG         9.9720   35.8850  -14.4030 C.ar  356  HIS356      0.0817
     89  ND1       10.0960   35.2150  -15.6010 N.ar  356  HIS356     -0.2268
     90  CD2       11.1740   35.8470  -13.8110 C.ar  356  HIS356      0.1154
     91  CE1       11.3360   34.8030  -15.7360 C.ar  356  HIS356      0.1986
     92  NE2       12.0240   35.1710  -14.6700 N.ar  356  HIS356     -0.2212
     93  N         13.2490   35.9660   -5.0300 N.3   391  ARG391     -0.1245
     94  CA        14.3280   35.1530   -5.5510 C.3   391  ARG391      0.1563
     95  C         15.4260   36.0070   -6.0810 C.2   391  ARG391      0.2260
     96  O         15.2000   37.0920   -6.6130 O.2   391  ARG391     -0.2867
     97  CB        13.8280   34.2360   -6.6600 C.3   391  ARG391      0.0307
     98  CG        14.9040   33.3650   -7.2640 C.3   391  ARG391      0.0489
     99  CD        14.3330   32.5070   -8.3720 C.3   391  ARG391      0.2205
    100  NE        13.8440   33.2910   -9.5050 N.pl3 391  ARG391     -0.0865
    101  CZ        14.5680   33.5850  -10.5810 C.cat 391  ARG391      0.5346
    102  NH1       15.8160   33.1550  -10.6730 N.pl3 391  ARG391      0.1354
    103  NH2       14.0710   34.3700  -11.5230 N.pl3 391  ARG391      0.1354
    104  N         18.2300   36.8500   -8.8340 N.3   393  GLY393     -0.1210
    105  CA        18.4880   36.5140  -10.2240 C.3   393  GLY393      0.1956
    106  C         19.5860   35.4710  -10.4470 C.2   393  GLY393      0.2612
    107  O         20.6690   35.5380   -9.8600 O.2   393  GLY393     -0.2717
    108  N         19.3070   34.4910  -11.3060 N.am  394  SER394     -0.1952
    109  CA        20.2160   33.3970  -11.6660 C.3   394  SER394      0.1924
    110  C         20.3880   32.3810  -10.5650 C.2   394  SER394      0.2314
    111  O         21.2640   31.5350  -10.6370 O.2   394  SER394     -0.2863
    112  CB        21.5970   33.9190  -12.1130 C.3   394  SER394      0.2116
    113  OG        22.3750   34.4210  -11.0440 O.3   394  SER394     -0.2180
@<TRIPOS>BOND
     1    51    50    2
     2     8     7   ar
     3     9     7   ar
     4    50    49    1
     5     7     6    1
     6    48    49    1
     7    62    60    1
     8     5     6    1
     9     5     2    1
    10    49    52    1
    11    56    57    1
    12     2     3    1
    13     2     1    1
    14    60    57    1
    15    60    61    1
    16     4     3    2
    17    52    53    1
    18    59    58    2
    19    57    58    1
    20     3    10   am
    21    58    63   am
    22    53    55    1
    23    53    54    1
    24    10    11    1
    25    65    66    2
    26    65    64    1
    27    63    64    1
    28    13    12    2
    29    11    12    1
    30    64    67    1
    31    12    14   am
    32    28    26   ar
    33    28    27   ar
    34    47    45   ar
    35    47    46   ar
    36    45    43   ar
    37    14    15    1
    38    26    24   ar
    39    27    25   ar
    40    15    16    1
    41    46    44   ar
    42    67    68    1
    43    43    44   ar
    44    43    42    1
    45    91    89   ar
    46    91    92   ar
    47    89    88   ar
    48    41    40    2
    49    68    69    1
    50    42    39    1
    51    24    23   ar
    52    16    17    2
    53    25    23   ar
    54    40    39    1
    55    92    90   ar
    56    88    87    1
    57    88    90   ar
    58    23    22    1
    59    39    38    1
    60    87    84    1
    61    69    70   ar
    62    69    71   ar
    63    84    83    1
    64    84    85    1
    65    86    85    2
    66    22    19    1
    67    19    18    1
    68    19    20    1
    69   112   109    1
    70   112   113    1
    71   109   108    1
    72   109   110    1
    73   103   101    1
    74   108   106   am
    75    32    31    2
    76    20    21    2
    77   102   101    1
    78   111   110    2
    79   101   100    2
    80    37    35   am
    81   106   105    1
    82   106   107    2
    83    77    78    1
    84    77    76    1
    85   105   104    1
    86    81    80    1
    87    31    30    1
    88    78    79    1
    89    75    74    2
    90    34    35    1
    91    34    33    1
    92   100    99    1
    93    35    36    2
    94    73    76    1
    95    73    74    1
    96    73    72    1
    97    80    79    2
    98    80    82    1
    99    33    30    1
   100    30    29    1
   101    99    98    1
   102    98    97    1
   103    97    94    1
   104    96    95    2
   105    95    94    1
   106    94    93    1
