@<TRIPOS>MOLECULE
tmp/1kfyH00.pdb
 92 91 0 0 0
SMALL
GASTEIGER

@<TRIPOS>ATOM
      1  N         29.7550   -9.4880  -49.3630 N.3    10  ASP10      -0.1239
      2  CA        29.9490   -9.2340  -50.7920 C.3    10  ASP10       0.1674
      3  C         30.7840  -10.3580  -51.4230 C.2    10  ASP10       0.2266
      4  O         31.0160  -10.3630  -52.6400 O.2    10  ASP10      -0.2867
      5  CB        30.6280   -7.8680  -51.0150 C.3    10  ASP10       0.1410
      6  CG        31.4210   -7.3840  -49.8070 C.2    10  ASP10       0.3668
      7  OD1       31.5940   -6.1540  -49.7370 O.co2  10  ASP10      -0.2456
      8  OD2       31.8600   -8.1990  -48.9590 O.co2  10  ASP10      -0.2456
      9  N         33.3590  -12.2770  -55.5570 N.3    14  PHE14      -0.1241
     10  CA        34.7260  -12.7830  -55.7430 C.3    14  PHE14       0.1605
     11  C         34.7650  -14.3200  -55.7550 C.2    14  PHE14       0.2264
     12  O         35.5940  -14.9460  -56.4280 O.2    14  PHE14      -0.2867
     13  CB        35.6370  -12.2250  -54.6320 C.3    14  PHE14       0.0534
     14  CG        35.6840  -10.7140  -54.5890 C.ar   14  PHE14      -0.0203
     15  CD1       35.7770   -9.9850  -55.7720 C.ar   14  PHE14      -0.0042
     16  CD2       35.6330  -10.0210  -53.3800 C.ar   14  PHE14      -0.0042
     17  CE1       35.8230   -8.5950  -55.7700 C.ar   14  PHE14      -0.0003
     18  CE2       35.6810   -8.6210  -53.3600 C.ar   14  PHE14      -0.0003
     19  CZ        35.7740   -7.9080  -54.5690 C.ar   14  PHE14      -0.0000
     20  N         41.8740  -14.2790  -61.3580 N.3    77  TRP77      -0.1241
     21  CA        40.7870  -14.0320  -60.4300 C.3    77  TRP77       0.1605
     22  C         40.6490  -15.1610  -59.3980 C.2    77  TRP77       0.2264
     23  O         40.1420  -14.9500  -58.2990 O.2    77  TRP77      -0.2867
     24  CB        39.4630  -13.8500  -61.1910 C.3    77  TRP77       0.0550
     25  CG        39.3030  -12.4910  -61.8580 C.ar   77  TRP77       0.0003
     26  CD1       39.3100  -12.2190  -63.2080 C.ar   77  TRP77       0.0946
     27  CD2       39.2380  -11.2110  -61.2010 C.ar   77  TRP77       0.0152
     28  NE1       39.2750  -10.8560  -63.4190 N.ar   77  TRP77      -0.2442
     29  CE2       39.2310  -10.2160  -62.2070 C.ar   77  TRP77       0.0810
     30  CE3       39.1940  -10.8170  -59.8540 C.ar   77  TRP77       0.0012
     31  CZ2       39.1870   -8.8460  -61.9100 C.ar   77  TRP77       0.0191
     32  CZ3       39.1480   -9.4470  -59.5590 C.ar   77  TRP77       0.0001
     33  CH2       39.1440   -8.4830  -60.5830 C.ar   77  TRP77       0.0015
     34  N         41.9090   -6.3050  -49.6630 N.3    98  LYS98      -0.1231
     35  CA        40.9320   -6.4130  -50.7360 C.3    98  LYS98       0.1693
     36  C         41.3440   -5.6530  -51.9770 C.2    98  LYS98       0.2592
     37  O         41.3570   -6.1830  -53.0880 O.2    98  LYS98      -0.2718
     38  CB        39.5770   -5.8690  -50.2830 C.3    98  LYS98       0.0285
     39  CG        38.7510   -6.8120  -49.4290 C.3    98  LYS98       0.0035
     40  CD        37.5920   -7.3910  -50.2470 C.3    98  LYS98       0.0206
     41  CE        36.5030   -7.9690  -49.3620 C.3    98  LYS98       0.1093
     42  NZ        35.9110   -6.9000  -48.5080 N.3    98  LYS98      -0.1314
     43  N         41.6630   -4.3870  -51.7770 N.am   99  TRP99      -0.1976
     44  CA        42.0450   -3.5510  -52.8910 C.3    99  TRP99       0.1640
     45  C         43.2750   -4.0990  -53.5800 C.2    99  TRP99       0.2290
     46  O         43.2940   -4.2510  -54.8040 O.2    99  TRP99      -0.2864
     47  CB        42.2730   -2.1170  -52.4100 C.3    99  TRP99       0.0576
     48  CG        41.0000   -1.4750  -52.0090 C.ar   99  TRP99       0.0006
     49  CD1       40.4220   -1.4910  -50.7770 C.ar   99  TRP99       0.0946
     50  CD2       40.0740   -0.8380  -52.8770 C.ar   99  TRP99       0.0152
     51  NE1       39.1850   -0.9020  -50.8280 N.ar   99  TRP99      -0.2442
     52  CE2       38.9490   -0.4860  -52.1090 C.ar   99  TRP99       0.0810
     53  CE3       40.0940   -0.5180  -54.2350 C.ar   99  TRP99       0.0012
     54  CZ2       37.8440    0.1520  -52.6540 C.ar   99  TRP99       0.0191
     55  CZ3       38.9970    0.1180  -54.7770 C.ar   99  TRP99       0.0001
     56  CH2       37.8860    0.4490  -53.9860 C.ar   99  TRP99       0.0015
     57  N         42.3630   -7.8760  -55.4660 N.3   102  TYR102     -0.1227
     58  CA        41.3800   -7.7390  -56.5330 C.3   102  TYR102      0.1736
     59  C         41.7950   -6.6050  -57.4820 C.2   102  TYR102      0.2596
     60  O         41.5170   -6.6310  -58.6950 O.2   102  TYR102     -0.2718
     61  CB        40.0200   -7.4760  -55.9120 C.3   102  TYR102      0.0548
     62  CG        39.6180   -8.6120  -55.0260 C.ar  102  TYR102     -0.0200
     63  CD1       39.5220   -8.4500  -53.6480 C.ar  102  TYR102     -0.0009
     64  CD2       39.3410   -9.8740  -55.5620 C.ar  102  TYR102     -0.0009
     65  CE1       39.1630   -9.5000  -52.8190 C.ar  102  TYR102      0.0417
     66  CE2       38.9790  -10.9450  -54.7440 C.ar  102  TYR102      0.0417
     67  CZ        38.8880  -10.7520  -53.3700 C.ar  102  TYR102      0.1957
     68  OH        38.5160  -11.7900  -52.5490 O.3   102  TYR102     -0.2866
     69  N         42.4680   -5.6130  -56.9130 N.am  103  GLY103     -0.1957
     70  CA        42.9040   -4.5040  -57.7290 C.3   103  GLY103      0.1869
     71  C         43.8920   -5.0350  -58.7390 C.2   103  GLY103      0.2309
     72  O         43.7140   -4.9140  -59.9570 O.2   103  GLY103     -0.2863
     73  N         42.1670   -6.7820  -61.4080 N.3   106  ALA106     -0.1231
     74  CA        41.5190   -5.9180  -62.3770 C.3   106  ALA106      0.1694
     75  C         42.5200   -5.2330  -63.3140 C.2   106  ALA106      0.2591
     76  O         42.2790   -5.0980  -64.5200 O.2   106  ALA106     -0.2718
     77  CB        40.6560   -4.8850  -61.6590 C.3   106  ALA106      0.0304
     78  N         43.6470   -4.8140  -62.7560 N.am  107  ILE107     -0.1980
     79  CA        44.6570   -4.1560  -63.5480 C.3   107  ILE107      0.1595
     80  C         45.1460   -5.0660  -64.6420 C.2   107  ILE107      0.2287
     81  O         45.1120   -4.7160  -65.8270 O.2   107  ILE107     -0.2864
     82  CB        45.8460   -3.7740  -62.6980 C.3   107  ILE107      0.0276
     83  CG1       45.4410   -2.6010  -61.7960 C.3   107  ILE107      0.0022
     84  CG2       47.0250   -3.4590  -63.5880 C.3   107  ILE107      0.0022
     85  CD1       46.5150   -2.0820  -60.8190 C.3   107  ILE107      0.0001
     86  N         42.7530   -5.6700  -67.2650 N.3   110  VAL110     -0.1245
     87  CA        42.7140   -4.5580  -68.2000 C.3   110  VAL110      0.1561
     88  C         43.8760   -4.7530  -69.1520 C.2   110  VAL110      0.2260
     89  O         43.6880   -4.8490  -70.3730 O.2   110  VAL110     -0.2867
     90  CB        42.9070   -3.2120  -67.4740 C.3   110  VAL110      0.0252
     91  CG1       42.8730   -2.0800  -68.4800 C.3   110  VAL110      0.0019
     92  CG2       41.8260   -3.0140  -66.4310 C.3   110  VAL110      0.0019
@<TRIPOS>BOND
     1    89    88    2
     2    88    87    1
     3    91    90    1
     4    87    90    1
     5    87    86    1
     6    90    92    1
     7    81    80    2
     8    80    79    1
     9    76    75    2
    10    84    82    1
    11    79    78    1
    12    79    82    1
    13    28    26   ar
    14    28    29   ar
    15    75    78   am
    16    75    74    1
    17    26    25   ar
    18    82    83    1
    19    74    77    1
    20    74    73    1
    21    29    31   ar
    22    29    27   ar
    23    31    33   ar
    24    25    27   ar
    25    25    24    1
    26    83    85    1
    27    20    21    1
    28    27    30   ar
    29    24    21    1
    30    33    32   ar
    31    21    22    1
    32    72    71    2
    33    30    32   ar
    34    22    23    2
    35    71    70    1
    36    60    59    2
    37    70    69    1
    38    59    69   am
    39    59    58    1
    40    58    61    1
    41    58    57    1
    42    12    11    2
    43    61    62    1
    44    15    17   ar
    45    15    14   ar
    46    17    19   ar
    47    11    10    1
    48    10     9    1
    49    10    13    1
    50    64    62   ar
    51    64    66   ar
    52    62    63   ar
    53    46    45    2
    54    55    53   ar
    55    55    56   ar
    56    66    67   ar
    57    13    14    1
    58    14    16   ar
    59    19    18   ar
    60    53    50   ar
    61    56    54   ar
    62    63    65   ar
    63    45    44    1
    64    16    18   ar
    65    67    65   ar
    66    67    68    1
    67    37    36    2
    68    44    47    1
    69    44    43    1
    70    50    52   ar
    71    50    48   ar
    72    54    52   ar
    73     4     3    2
    74    47    48    1
    75    52    51   ar
    76    48    49   ar
    77    36    43   am
    78    36    35    1
    79     3     2    1
    80     5     2    1
    81     5     6    1
    82    51    49   ar
    83     2     1    1
    84    35    38    1
    85    35    34    1
    86    38    39    1
    87    40    39    1
    88    40    41    1
    89     6     7   ar
    90     6     8   ar
    91    41    42    1
