@<TRIPOS>MOLECULE
tmp/1kgiB00.pdb
 79 70 0 0 0
SMALL
GASTEIGER

@<TRIPOS>ATOM
      1  N         54.6250   89.6370   40.0900 N.3     6  MET6       -0.1245
      2  CA        53.9490   90.1930   41.2520 C.3     6  MET6        0.1570
      3  C         52.9280   89.1850   41.7630 C.2     6  MET6        0.2261
      4  O         52.4410   88.3460   41.0010 O.2     6  MET6       -0.2867
      5  CB        53.2560   91.5090   40.9090 C.3     6  MET6        0.0387
      6  CG        52.8620   92.3110   42.1390 C.3     6  MET6        0.0595
      7  SD        51.7850   93.6960   41.7690 S.3     6  MET6       -0.1393
      8  CE        50.1900   92.9850   42.1710 C.3     6  MET6        0.0692
      9  N         49.4070   88.9910   44.3150 N.3     8  LYS8       -0.1245
     10  CA        48.3610   89.7470   44.9990 C.3     8  LYS8        0.1561
     11  C         47.4320   88.7330   45.6570 C.2     8  LYS8        0.2260
     12  O         46.9730   87.7980   45.0020 O.2     8  LYS8       -0.2867
     13  CB        47.5900   90.5840   43.9760 C.3     8  LYS8        0.0271
     14  CG        47.0370   91.9190   44.4810 C.3     8  LYS8        0.0035
     15  CD        46.0880   91.7670   45.6610 C.3     8  LYS8        0.0206
     16  CE        45.3420   93.0680   45.9460 C.3     8  LYS8        0.1093
     17  NZ        46.2420   94.2260   46.1970 N.3     8  LYS8       -0.1314
     18  N         43.9700   88.2210   48.2930 N.3    10  LEU10      -0.1245
     19  CA        42.8030   88.7910   48.9540 C.3    10  LEU10       0.1561
     20  C         42.1040   87.7570   49.8340 C.2    10  LEU10       0.2260
     21  O         42.2020   86.5520   49.5990 O.2    10  LEU10      -0.2867
     22  CB        41.8040   89.3210   47.9220 C.3    10  LEU10       0.0270
     23  CG        42.2090   90.5330   47.0820 C.3    10  LEU10       0.0019
     24  CD1       41.0320   90.9470   46.1970 C.3    10  LEU10       0.0001
     25  CD2       42.6080   91.6930   47.9830 C.3    10  LEU10       0.0001
     26  N         49.8920   92.6770   48.5850 N.3    47  GLU47      -0.1245
     27  CA        50.8020   92.4500   47.4690 C.3    47  GLU47       0.1567
     28  C         52.2330   92.1700   47.8880 C.2    47  GLU47       0.2260
     29  O         52.6910   92.5930   48.9530 O.2    47  GLU47      -0.2867
     30  CB        50.7990   93.6570   46.5330 C.3    47  GLU47       0.0388
     31  CG        49.4180   94.0620   46.0870 C.3    47  GLU47       0.1160
     32  CD        49.3920   95.3580   45.3090 C.2    47  GLU47       0.3649
     33  OE1       48.4070   95.5670   44.5770 O.co2  47  GLU47      -0.2457
     34  OE2       50.3350   96.1710   45.4260 O.co2  47  GLU47      -0.2457
     35  N         51.2950   88.7430   36.8760 N.3    99  THR99      -0.1218
     36  CA        50.6660   89.0190   38.1590 C.3    99  THR99       0.1862
     37  C         49.8050   87.8120   38.5230 C.2    99  THR99       0.2287
     38  O         48.9080   87.4200   37.7640 O.2    99  THR99      -0.2866
     39  CB        49.7860   90.2970   38.1390 C.3    99  THR99       0.1770
     40  OG1       50.6240   91.4570   38.1000 O.3    99  THR99      -0.2211
     41  CG2       48.9140   90.3740   39.3880 C.3    99  THR99       0.0375
     42  N         47.2260   86.4500   41.0070 N.3   101  ALA101     -0.1231
     43  CA        46.2590   86.9100   41.9860 C.3   101  ALA101      0.1694
     44  C         45.5660   85.7160   42.6340 C.2   101  ALA101      0.2592
     45  O         45.2870   84.7170   41.9650 O.2   101  ALA101     -0.2718
     46  CB        45.2440   87.8070   41.3210 C.3   101  ALA101      0.0304
     47  N         45.2940   85.8240   43.9340 N.am  102  ALA102     -0.1966
     48  CA        44.6200   84.7610   44.6740 C.3   102  ALA102      0.1728
     49  C         43.5490   85.3000   45.6290 C.2   102  ALA102      0.2616
     50  O         43.7600   86.2950   46.3190 O.2   102  ALA102     -0.2715
     51  CB        45.6320   83.9350   45.4410 C.3   102  ALA102      0.0334
     52  N         42.3840   84.6570   45.6150 N.am  103  LEU103     -0.1977
     53  CA        41.2620   85.0080   46.4820 C.3   103  LEU103      0.1596
     54  C         41.1080   83.8010   47.3980 C.2   103  LEU103      0.2287
     55  O         40.8500   82.6860   46.9250 O.2   103  LEU103     -0.2864
     56  CB        39.9770   85.2160   45.6760 C.3   103  LEU103      0.0297
     57  CG        38.7340   85.5730   46.4950 C.3   103  LEU103      0.0022
     58  CD1       39.0010   86.8070   47.3470 C.3   103  LEU103      0.0001
     59  CD2       37.5510   85.8130   45.5640 C.3   103  LEU103      0.0001
     60  N         40.7120   80.7140   44.5580 N.3   110  SER110     -0.1217
     61  CA        40.7160   80.8610   43.1220 C.3   110  SER110      0.1889
     62  C         41.9550   81.6630   42.8100 C.2   110  SER110      0.2288
     63  O         42.3740   82.5140   43.6010 O.2   110  SER110     -0.2866
     64  CB        39.4700   81.6110   42.6450 C.3   110  SER110      0.2089
     65  OG        39.5130   82.9740   43.0210 O.3   110  SER110     -0.2183
     66  N         44.1320   83.6820   39.5620 N.3   112  THR112     -0.1218
     67  CA        44.0480   84.2320   38.2200 C.3   112  THR112      0.1862
     68  C         45.3640   84.8750   37.8250 C.2   112  THR112      0.2287
     69  O         46.0790   85.4280   38.6650 O.2   112  THR112     -0.2866
     70  CB        42.9430   85.2930   38.1230 C.3   112  THR112      0.1770
     71  OG1       41.7090   84.7320   38.5830 O.3   112  THR112     -0.2211
     72  CG2       42.7670   85.7490   36.6900 C.3   112  THR112      0.0375
     73  N         47.3450   87.6130   35.2410 N.3   114  VAL114     -0.1245
     74  CA        47.2070   88.7950   34.4080 C.3   114  VAL114      0.1561
     75  C         48.5790   88.9870   33.7760 C.2   114  VAL114      0.2260
     76  O         49.5550   89.2840   34.4700 O.2   114  VAL114     -0.2867
     77  CB        46.8340   90.0480   35.2330 C.3   114  VAL114      0.0252
     78  CG1       46.6590   91.2480   34.3120 C.3   114  VAL114      0.0019
     79  CG2       45.5590   89.8030   36.0310 C.3   114  VAL114      0.0019
@<TRIPOS>BOND
     1    75    74    1
     2    75    76    2
     3    78    77    1
     4    74    77    1
     5    74    73    1
     6    77    79    1
     7    72    70    1
     8    35    36    1
     9    38    37    2
    10    68    67    1
    11    68    69    2
    12    40    39    1
    13    70    67    1
    14    70    71    1
    15    39    36    1
    16    39    41    1
    17    36    37    1
    18    67    66    1
    19     1     2    1
    20     5     2    1
    21     5     6    1
    22     4     3    2
    23    42    43    1
    24     2     3    1
    25    46    43    1
    26     7     6    1
    27     7     8    1
    28    45    44    2
    29    43    44    1
    30    44    47   am
    31    64    65    1
    32    64    61    1
    33    62    61    1
    34    62    63    2
    35    61    60    1
    36    47    48    1
    37    13    14    1
    38    13    10    1
    39     9    10    1
    40    14    15    1
    41    33    32   ar
    42    48    51    1
    43    48    49    1
    44    10    11    1
    45    12    11    2
    46    32    34   ar
    47    32    31    1
    48    59    57    1
    49    52    49   am
    50    52    53    1
    51    49    50    2
    52    15    16    1
    53    56    53    1
    54    56    57    1
    55    16    17    1
    56    31    30    1
    57    24    23    1
    58    53    54    1
    59    57    58    1
    60    30    27    1
    61    55    54    2
    62    23    22    1
    63    23    25    1
    64    27    28    1
    65    27    26    1
    66    28    29    2
    67    22    19    1
    68    18    19    1
    69    19    20    1
    70    21    20    2
