@<TRIPOS>MOLECULE
tmp/1kgjA00.pdb
 79 70 0 0 0
SMALL
GASTEIGER

@<TRIPOS>ATOM
      1  N         37.0190   62.9470   46.0140 N.3     9  MET9       -0.1245
      2  CA        36.4150   63.2370   44.7250 C.3     9  MET9        0.1570
      3  C         36.8620   64.5960   44.2020 C.2     9  MET9        0.2261
      4  O         37.0670   65.5340   44.9670 O.2     9  MET9       -0.2867
      5  CB        34.8910   63.2200   44.8360 C.3     9  MET9        0.0387
      6  CG        34.2100   63.1440   43.4900 C.3     9  MET9        0.0595
      7  SD        32.5570   63.8360   43.4650 S.3     9  MET9       -0.1393
      8  CE        32.8180   65.2290   42.3370 C.3     9  MET9        0.0692
      9  N         36.0570   67.6130   41.1660 N.3    11  LYS11      -0.1245
     10  CA        35.1400   68.1320   40.1730 C.3    11  LYS11       0.1561
     11  C         35.8000   69.3580   39.5820 C.2    11  LYS11       0.2260
     12  O         36.2810   70.2110   40.3200 O.2    11  LYS11      -0.2867
     13  CB        33.7800   68.4750   40.7770 C.3    11  LYS11       0.0271
     14  CG        32.7720   68.8790   39.7120 C.3    11  LYS11       0.0035
     15  CD        31.3270   68.7440   40.1800 C.3    11  LYS11       0.0206
     16  CE        30.3570   69.1000   39.0560 C.3    11  LYS11       0.1093
     17  NZ        28.9390   68.8230   39.4210 N.3    11  LYS11      -0.1314
     18  N         35.4700   72.4320   36.4530 N.3    13  LEU13      -0.1245
     19  CA        34.5300   73.1580   35.5960 C.3    13  LEU13       0.1561
     20  C         35.1860   74.0740   34.5850 C.2    13  LEU13       0.2260
     21  O         36.3090   74.5220   34.7770 O.2    13  LEU13      -0.2867
     22  CB        33.5840   74.0000   36.4360 C.3    13  LEU13       0.0270
     23  CG        32.6150   73.2700   37.3440 C.3    13  LEU13       0.0019
     24  CD1       31.6280   74.2840   37.8750 C.3    13  LEU13       0.0001
     25  CD2       31.9050   72.1830   36.5560 C.3    13  LEU13       0.0001
     26  N         33.5540   65.2090   36.6650 N.3    50  GLU50      -0.1245
     27  CA        33.8320   64.5320   37.9200 C.3    50  GLU50       0.1567
     28  C         34.7760   63.3380   37.7340 C.2    50  GLU50       0.2260
     29  O         34.8880   62.7870   36.6500 O.2    50  GLU50      -0.2867
     30  CB        32.5180   64.0530   38.5480 C.3    50  GLU50       0.0388
     31  CG        31.3700   65.0620   38.5020 C.3    50  GLU50       0.1160
     32  CD        30.1730   64.6630   39.3700 C.2    50  GLU50       0.3649
     33  OE1       30.0220   63.4670   39.6910 O.co2  50  GLU50      -0.2457
     34  OE2       29.3810   65.5590   39.7410 O.co2  50  GLU50      -0.2457
     35  N         35.7250   66.6800   48.8770 N.3   102  THR102     -0.1218
     36  CA        35.3350   67.0850   47.5440 C.3   102  THR102      0.1862
     37  C         36.1350   68.3180   47.1790 C.2   102  THR102      0.2287
     38  O         36.1330   69.3270   47.8880 O.2   102  THR102     -0.2866
     39  CB        33.8280   67.3690   47.4130 C.3   102  THR102      0.1770
     40  OG1       33.0930   66.1590   47.6160 O.3   102  THR102     -0.2211
     41  CG2       33.5140   67.8940   46.0270 C.3   102  THR102      0.0375
     42  N         36.8630   71.0340   44.2300 N.3   104  ALA104     -0.1231
     43  CA        36.2430   71.6020   43.0510 C.3   104  ALA104      0.1694
     44  C         37.1490   72.6900   42.5230 C.2   104  ALA104      0.2592
     45  O         37.6710   73.4930   43.2910 O.2   104  ALA104     -0.2718
     46  CB        34.8870   72.1470   43.3750 C.3   104  ALA104      0.0304
     47  N         37.3960   72.6580   41.2190 N.am  105  ALA105     -0.1966
     48  CA        38.2360   73.6390   40.5770 C.3   105  ALA105      0.1728
     49  C         37.4470   74.2380   39.4260 C.2   105  ALA105      0.2616
     50  O         36.6670   73.5410   38.7800 O.2   105  ALA105     -0.2715
     51  CB        39.5040   72.9900   40.0830 C.3   105  ALA105      0.0334
     52  N         37.6090   75.5450   39.2150 N.am  106  LEU106     -0.1977
     53  CA        36.9070   76.2600   38.1520 C.3   106  LEU106      0.1596
     54  C         37.9610   76.7840   37.2120 C.2   106  LEU106      0.2287
     55  O         38.8300   77.5550   37.6160 O.2   106  LEU106     -0.2864
     56  CB        36.1100   77.4120   38.7360 C.3   106  LEU106      0.0297
     57  CG        35.3580   78.3190   37.7780 C.3   106  LEU106      0.0022
     58  CD1       34.2200   77.5600   37.1220 C.3   106  LEU106      0.0001
     59  CD2       34.8250   79.5060   38.5530 C.3   106  LEU106      0.0001
     60  N         39.8340   78.8310   40.5500 N.3   113  SER113     -0.1217
     61  CA        39.4660   78.7650   41.9490 C.3   113  SER113      0.1889
     62  C         39.3670   77.3060   42.3170 C.2   113  SER113      0.2288
     63  O         38.9880   76.4760   41.4880 O.2   113  SER113     -0.2866
     64  CB        38.0960   79.4030   42.1830 C.3   113  SER113      0.2089
     65  OG        37.9990   80.6640   41.5580 O.3   113  SER113     -0.2183
     66  N         37.9470   74.7820   45.6080 N.3   115  THR115     -0.1218
     67  CA        37.1820   74.8000   46.8390 C.3   115  THR115      0.1862
     68  C         37.0310   73.4120   47.4010 C.2   115  THR115      0.2287
     69  O         36.8940   72.4430   46.6610 O.2   115  THR115     -0.2866
     70  CB        35.7780   75.3650   46.6240 C.3   115  THR115      0.1770
     71  OG1       35.8810   76.6010   45.9180 O.3   115  THR115     -0.2211
     72  CG2       35.0810   75.6070   47.9700 C.3   115  THR115      0.0375
     73  N         34.8730   70.9830   50.0740 N.3   117  VAL117     -0.1245
     74  CA        33.6060   70.7960   50.7590 C.3   117  VAL117      0.1561
     75  C         33.8760   69.5000   51.5120 C.2   117  VAL117      0.2260
     76  O         33.8130   68.4140   50.9250 O.2   117  VAL117     -0.2867
     77  CB        32.4580   70.5820   49.7510 C.3   117  VAL117      0.0252
     78  CG1       31.1610   70.2360   50.4660 C.3   117  VAL117      0.0019
     79  CG2       32.2890   71.8260   48.8820 C.3   117  VAL117      0.0019
@<TRIPOS>BOND
     1    20    21    2
     2    20    19    1
     3    19    22    1
     4    19    18    1
     5    22    23    1
     6    25    23    1
     7    29    28    2
     8    26    27    1
     9    58    57    1
    10    54    55    2
    11    54    53    1
    12    23    24    1
    13    28    27    1
    14    57    59    1
    15    57    56    1
    16    27    30    1
    17    53    56    1
    18    53    52    1
    19    31    30    1
    20    31    32    1
    21    50    49    2
    22    16    17    1
    23    16    15    1
    24    52    49   am
    25    32    33   ar
    26    32    34   ar
    27    49    48    1
    28    11    10    1
    29    11    12    2
    30    14    15    1
    31    14    13    1
    32    51    48    1
    33    10    13    1
    34    10     9    1
    35    60    61    1
    36    48    47    1
    37    47    44   am
    38    63    62    2
    39    65    64    1
    40    61    64    1
    41    61    62    1
    42     8     7    1
    43    44    43    1
    44    44    45    2
    45    43    46    1
    46    43    42    1
    47     7     6    1
    48     6     5    1
    49     3     2    1
    50     3     4    2
    51     2     5    1
    52     2     1    1
    53    66    67    1
    54    71    70    1
    55    41    39    1
    56    70    67    1
    57    70    72    1
    58    69    68    2
    59    67    68    1
    60    37    36    1
    61    37    38    2
    62    39    36    1
    63    39    40    1
    64    36    35    1
    65    79    77    1
    66    77    78    1
    67    77    74    1
    68    73    74    1
    69    74    75    1
    70    76    75    2
