@<TRIPOS>MOLECULE
tmp/1kgqA01.pdb
 166 155 0 0 0
SMALL
GASTEIGER

@<TRIPOS>ATOM
      1  N         55.0080   91.4970    0.4350 N.3   141  ASP141     -0.1225
      2  CA        55.5710   90.1570    0.3570 C.3   141  ASP141      0.1805
      3  C         54.4940   89.0920    0.0210 C.2   141  ASP141      0.2598
      4  O         53.3060   89.3690    0.0110 O.2   141  ASP141     -0.2718
      5  CB        56.2880   89.8340    1.6590 C.3   141  ASP141      0.1424
      6  CG        57.5150   88.9180    1.4510 C.2   141  ASP141      0.3668
      7  OD1       57.7050   88.3630    0.3510 O.co2 141  ASP141     -0.2456
      8  OD2       58.3250   88.8640    2.3760 O.co2 141  ASP141     -0.2456
      9  N         54.9530   87.8760   -0.2410 N.am  142  THR142     -0.1953
     10  CA        54.1470   86.7870   -0.7370 C.3   142  THR142      0.1897
     11  C         52.8260   86.4830   -0.0530 C.2   142  THR142      0.2313
     12  O         52.7710   86.3500    1.1510 O.2   142  THR142     -0.2863
     13  CB        55.0320   85.5680   -0.9430 C.3   142  THR142      0.1794
     14  OG1       56.2500   86.0200   -1.5460 O.3   142  THR142     -0.2208
     15  CG2       54.3890   84.6060   -1.8910 C.3   142  THR142      0.0378
     16  N         57.0310   97.4470    5.1260 N.3   157  HIS157     -0.1241
     17  CA        57.2540   96.0710    4.7690 C.3   157  HIS157      0.1621
     18  C         56.0870   95.2240    5.2870 C.2   157  HIS157      0.2264
     19  O         55.9310   95.0260    6.4800 O.2   157  HIS157     -0.2867
     20  CB        58.5940   95.4800    5.3530 C.3   157  HIS157      0.0745
     21  CG        58.8370   94.0550    4.9230 C.ar  157  HIS157      0.0817
     22  ND1       59.5100   93.7390    3.7660 N.ar  157  HIS157     -0.2268
     23  CD2       58.3530   92.8840    5.4010 C.ar  157  HIS157      0.1154
     24  CE1       59.4640   92.4380    3.5650 C.ar  157  HIS157      0.1986
     25  NE2       58.7510   91.8980    4.5310 N.ar  157  HIS157     -0.2212
     26  N         54.9300   91.7490    5.5540 N.3   159  SER159     -0.1202
     27  CA        55.5160   90.4040    5.3810 C.3   159  SER159      0.2020
     28  C         54.5620   89.4000    4.7280 C.2   159  SER159      0.2619
     29  O         53.4170   89.7310    4.3380 O.2   159  SER159     -0.2717
     30  CB        56.1110   89.7840    6.6820 C.3   159  SER159      0.2103
     31  OG        56.6610   90.7200    7.5620 O.3   159  SER159     -0.2182
     32  N         55.0400   88.1560    4.6160 N.am  160  GLY160     -0.1956
     33  CA        54.2700   87.1110    3.9590 C.3   160  GLY160      0.1869
     34  C         52.9650   86.8420    4.6680 C.2   160  GLY160      0.2309
     35  O         52.9210   86.7660    5.8680 O.2   160  GLY160     -0.2863
     36  N         56.7090   97.9700    9.9020 N.3   183  PHE183     -0.1241
     37  CA        57.0250   96.6050    9.4510 C.3   183  PHE183      0.1605
     38  C         55.9210   95.7350   10.0320 C.2   183  PHE183      0.2264
     39  O         55.6810   95.7800   11.2280 O.2   183  PHE183     -0.2867
     40  CB        58.3880   96.1300   10.0320 C.3   183  PHE183      0.0534
     41  CG        58.6850   94.6750    9.7550 C.ar  183  PHE183     -0.0203
     42  CD1       59.4320   94.2990    8.6280 C.ar  183  PHE183     -0.0042
     43  CD2       58.1890   93.6860   10.5900 C.ar  183  PHE183     -0.0042
     44  CE1       59.6850   92.9420    8.3500 C.ar  183  PHE183     -0.0003
     45  CE2       58.4570   92.3170   10.3260 C.ar  183  PHE183     -0.0003
     46  CZ        59.1750   91.9670    9.1840 C.ar  183  PHE183     -0.0000
     47  N         54.7490   91.9740   10.6160 N.3   185  GLY185     -0.1210
     48  CA        55.2540   90.5940   10.6570 C.3   185  GLY185      0.1956
     49  C         54.3520   89.5790    9.9880 C.2   185  GLY185      0.2612
     50  O         53.1540   89.7980    9.8290 O.2   185  GLY185     -0.2717
     51  N         54.9680   88.4750    9.5710 N.am  186  ALA186     -0.1965
     52  CA        54.2990   87.4090    8.8270 C.3   186  ALA186      0.1728
     53  C         52.9730   86.9610    9.4460 C.2   186  ALA186      0.2616
     54  O         52.8690   86.7970   10.6450 O.2   186  ALA186     -0.2715
     55  CB        55.2580   86.2020    8.6770 C.3   186  ALA186      0.0334
     56  N         51.9870   86.7410    8.5850 N.am  187  ARG187     -0.1977
     57  CA        50.6440   86.2670    8.9850 C.3   187  ARG187      0.1597
     58  C         49.8940   87.0940   10.0110 C.2   187  ARG187      0.2287
     59  O         49.0090   86.5990   10.6840 O.2   187  ARG187     -0.2864
     60  CB        50.6160   84.7730    9.4140 C.3   187  ARG187      0.0334
     61  CG        51.6570   83.8550    8.8310 C.3   187  ARG187      0.0492
     62  CD        51.2180   83.1920    7.6020 C.3   187  ARG187      0.2205
     63  NE        52.2830   83.3270    6.6410 N.pl3 187  ARG187     -0.0865
     64  CZ        52.2280   82.8920    5.3670 C.cat 187  ARG187      0.5346
     65  NH1       51.1240   82.3540    4.9700 N.pl3 187  ARG187      0.1354
     66  NH2       53.2540   83.0280    4.5400 N.pl3 187  ARG187      0.1354
     67  N         56.6760   98.3820   14.7190 N.3   201  VAL201     -0.1245
     68  CA        57.0360   97.0190   14.3000 C.3   201  VAL201      0.1561
     69  C         56.0350   96.0490   14.9050 C.2   201  VAL201      0.2260
     70  O         55.9230   95.9300   16.1220 O.2   201  VAL201     -0.2867
     71  CB        58.4950   96.6350   14.7760 C.3   201  VAL201      0.0252
     72  CG1       58.7770   95.1440   14.6180 C.3   201  VAL201      0.0019
     73  CG2       59.5220   97.4180   14.0120 C.3   201  VAL201      0.0019
     74  N         54.8790   92.2150   15.3020 N.3   203  SER203     -0.1202
     75  CA        55.4780   90.9010   15.1820 C.3   203  SER203      0.2020
     76  C         54.6500   89.9550   14.3470 C.2   203  SER203      0.2618
     77  O         53.6360   90.3320   13.7790 O.2   203  SER203     -0.2717
     78  CB        55.6750   90.2910   16.5610 C.3   203  SER203      0.2103
     79  OG        56.5840   89.2120   16.4820 O.3   203  SER203     -0.2182
     80  N         55.0570   88.6950   14.3110 N.am  204  MET204     -0.1979
     81  CA        54.3210   87.6750   13.5580 C.3   204  MET204      0.1605
     82  C         53.0360   87.2490   14.2810 C.2   204  MET204      0.2287
     83  O         53.0230   87.1180   15.4950 O.2   204  MET204     -0.2864
     84  CB        55.1830   86.4060   13.4540 C.3   204  MET204      0.0413
     85  CG        56.4190   86.5510   12.6590 C.3   204  MET204      0.0598
     86  SD        57.3340   84.9610   12.6360 S.3   204  MET204     -0.1393
     87  CE        57.9540   84.9180   14.2070 C.3   204  MET204      0.0692
     88  N         52.5730   97.2060   28.5870 N.3   217  ARG217     -0.1245
     89  CA        53.0020   96.6830   29.8820 C.3   217  ARG217      0.1563
     90  C         53.7610   97.7030   30.7620 C.2   217  ARG217      0.2260
     91  O         53.8040   97.5740   32.0050 O.2   217  ARG217     -0.2867
     92  CB        53.8320   95.4010   29.7130 C.3   217  ARG217      0.0307
     93  CG        55.0470   95.5650   28.8290 C.3   217  ARG217      0.0489
     94  CD        55.9220   94.3190   28.8980 C.3   217  ARG217      0.2205
     95  NE        57.1950   94.5310   28.2220 N.pl3 217  ARG217     -0.0865
     96  CZ        58.1210   93.5960   28.0710 C.cat 217  ARG217      0.5346
     97  NH1       57.9130   92.3910   28.5410 N.pl3 217  ARG217      0.1354
     98  NH2       59.2420   93.8640   27.4390 N.pl3 217  ARG217      0.1354
     99  N         56.7860   98.2990   19.3520 N.3   232  VAL232     -0.1245
    100  CA        57.0970   96.9500   18.9460 C.3   232  VAL232      0.1561
    101  C         55.9620   96.1540   19.6420 C.2   232  VAL232      0.2260
    102  O         55.8140   96.1760   20.8840 O.2   232  VAL232     -0.2867
    103  CB        58.4970   96.4860   19.4480 C.3   232  VAL232      0.0252
    104  CG1       58.7130   94.9430   19.1460 C.3   232  VAL232      0.0019
    105  CG2       59.6010   97.3020   18.7590 C.3   232  VAL232      0.0019
    106  N         53.7200   92.4900   20.1270 N.3   234  VAL234     -0.1231
    107  CA        53.7140   91.0200   20.0010 C.3   234  VAL234      0.1692
    108  C         52.4300   90.4680   20.6070 C.2   234  VAL234      0.2592
    109  O         51.7460   91.1600   21.3550 O.2   234  VAL234     -0.2718
    110  CB        54.9570   90.3430   20.7360 C.3   234  VAL234      0.0266
    111  CG1       56.2580   90.8670   20.1920 C.3   234  VAL234      0.0020
    112  CG2       54.9050   90.5600   22.2350 C.3   234  VAL234      0.0020
    113  N         52.1220   89.2150   20.2830 N.am  235  SER235     -0.1952
    114  CA        50.9430   88.5160   20.7970 C.3   235  SER235      0.1924
    115  C         51.0760   88.1580   22.2490 C.2   235  SER235      0.2314
    116  O         52.1300   87.7460   22.6990 O.2   235  SER235     -0.2863
    117  CB        50.7650   87.2090   20.0320 C.3   235  SER235      0.2116
    118  OG        50.1920   87.4610   18.7930 O.3   235  SER235     -0.2180
    119  N         55.7100   95.6770   23.8860 N.3   253  VAL253     -0.1231
    120  CA        56.7740   95.2800   24.8200 C.3   253  VAL253      0.1692
    121  C         57.9130   96.2730   24.9070 C.2   253  VAL253      0.2591
    122  O         58.7430   96.1930   25.8120 O.2   253  VAL253     -0.2718
    123  CB        57.3780   93.9060   24.4520 C.3   253  VAL253      0.0266
    124  CG1       56.4320   92.7680   24.8320 C.3   253  VAL253      0.0020
    125  CG2       57.7160   93.8690   22.9800 C.3   253  VAL253      0.0020
    126  N         57.9960   97.1780   23.9440 N.am  254  LYS254     -0.1980
    127  CA        59.0870   98.1180   23.9470 C.3   254  LYS254      0.1596
    128  C         59.0140   99.0550   22.7670 C.2   254  LYS254      0.2287
    129  O         58.1480   98.9080   21.8960 O.2   254  LYS254     -0.2864
    130  CB        60.4100   97.3490   23.8940 C.3   254  LYS254      0.0298
    131  CG        60.6820   96.6750   22.5590 C.3   254  LYS254      0.0038
    132  CD        61.9330   95.8000   22.6240 C.3   254  LYS254      0.0206
    133  CE        62.9000   96.1080   21.4610 C.3   254  LYS254      0.1093
    134  NZ        64.2130   95.4080   21.5830 N.3   254  LYS254     -0.1314
    135  N         68.4660   97.0030   18.0660 N.3   259  LYS259     -0.1231
    136  CA        68.3400   95.5600   18.0590 C.3   259  LYS259      0.1693
    137  C         67.1810   95.1670   17.1260 C.2   259  LYS259      0.2592
    138  O         67.3140   94.2870   16.2780 O.2   259  LYS259     -0.2718
    139  CB        68.0610   95.0820   19.4860 C.3   259  LYS259      0.0285
    140  CG        67.4540   93.7000   19.5320 C.3   259  LYS259      0.0035
    141  CD        67.7420   93.0110   20.8460 C.3   259  LYS259      0.0206
    142  CE        67.8590   91.5090   20.6490 C.3   259  LYS259      0.1093
    143  NZ        67.0060   90.7800   21.6100 N.3   259  LYS259     -0.1314
    144  N         66.0550   95.8560   17.2880 N.am  260  THR260     -0.1953
    145  CA        64.8780   95.6010   16.4950 C.3   260  THR260      0.1897
    146  C         65.1810   95.9060   15.0730 C.2   260  THR260      0.2313
    147  O         64.9010   95.1100   14.1950 O.2   260  THR260     -0.2863
    148  CB        63.7170   96.4900   16.9340 C.3   260  THR260      0.1794
    149  OG1       63.5420   96.3680   18.3500 O.3   260  THR260     -0.2208
    150  CG2       62.4220   96.0760   16.2040 C.3   260  THR260      0.0378
    151  N         66.5310   93.3450   12.6320 N.3   263  LYS263     -0.1231
    152  CA        65.7070   92.2990   12.0850 C.3   263  LYS263      0.1693
    153  C         64.6760   92.7380   11.0660 C.2   263  LYS263      0.2591
    154  O         64.1010   91.9100   10.3800 O.2   263  LYS263     -0.2718
    155  CB        65.0150   91.5790   13.2410 C.3   263  LYS263      0.0285
    156  CG        65.7380   91.7190   14.5660 C.3   263  LYS263      0.0035
    157  CD        65.4620   90.5030   15.4250 C.3   263  LYS263      0.0206
    158  CE        66.1740   90.5710   16.7700 C.3   263  LYS263      0.1093
    159  NZ        65.5580   89.6520   17.8010 N.3   263  LYS263     -0.1314
    160  N         64.4190   94.0310   10.9580 N.am  264  VAL264     -0.1980
    161  CA        63.3370   94.4730   10.0620 C.3   264  VAL264      0.1595
    162  C         63.6660   95.4160    8.9310 C.2   264  VAL264      0.2287
    163  O         62.7720   95.9470    8.2950 O.2   264  VAL264     -0.2864
    164  CB        62.1870   95.0790   10.8710 C.3   264  VAL264      0.0276
    165  CG1       61.8220   94.1500   11.9710 C.3   264  VAL264      0.0022
    166  CG2       62.6130   96.4300   11.4770 C.3   264  VAL264      0.0022
@<TRIPOS>BOND
     1    15    13    1
     2    14    13    1
     3    13    10    1
     4    10     9    1
     5    10    11    1
     6     9     3   am
     7    11    12    2
     8     4     3    2
     9     3     2    1
    10     7     6   ar
    11     2     1    1
    12     2     5    1
    13     6     5    1
    14     6     8   ar
    15    24    22   ar
    16    24    25   ar
    17    22    21   ar
    18    33    32    1
    19    33    34    1
    20    29    28    2
    21    25    23   ar
    22    66    64    1
    23    32    28   am
    24    34    35    2
    25    28    27    1
    26    17    16    1
    27    17    18    1
    28    17    20    1
    29    21    20    1
    30    21    23   ar
    31    65    64    1
    32    18    19    2
    33    64    63    2
    34    27    26    1
    35    27    30    1
    36    63    62    1
    37    30    31    1
    38    62    61    1
    39   163   162    2
    40    44    42   ar
    41    44    46   ar
    42    56    57    1
    43    56    53   am
    44    42    41   ar
    45    55    52    1
    46    52    53    1
    47    52    51    1
    48    61    60    1
    49   162   161    1
    50    57    60    1
    51    57    58    1
    52    46    45   ar
    53    53    54    2
    54    37    36    1
    55    37    40    1
    56    37    38    1
    57    51    49   am
    58    41    40    1
    59    41    43   ar
    60    50    49    2
    61    49    48    1
    62    58    59    2
    63    38    39    2
    64   161   164    1
    65   161   160    1
    66    45    43   ar
    67   154   153    2
    68    47    48    1
    69   164   166    1
    70   164   165    1
    71   160   153   am
    72   153   152    1
    73   152   151    1
    74   152   155    1
    75    86    85    1
    76    86    87    1
    77    85    84    1
    78   155   156    1
    79    84    81    1
    80    81    82    1
    81    81    80    1
    82    77    76    2
    83    73    71    1
    84   147   146    2
    85    82    83    2
    86    68    67    1
    87    68    71    1
    88    68    69    1
    89    80    76   am
    90    76    75    1
    91   156   157    1
    92    72    71    1
    93    69    70    2
    94   146   145    1
    95    75    74    1
    96    75    78    1
    97   157   158    1
    98   150   148    1
    99   138   137    2
   100    79    78    1
   101   145   148    1
   102   145   144    1
   103   158   159    1
   104   148   149    1
   105   137   144   am
   106   137   136    1
   107   136   135    1
   108   136   139    1
   109   105   103    1
   110   118   117    1
   111   100    99    1
   112   100   103    1
   113   100   101    1
   114   104   103    1
   115   139   140    1
   116   140   141    1
   117   101   102    2
   118   107   106    1
   119   107   108    1
   120   107   110    1
   121   117   114    1
   122   111   110    1
   123   113   108   am
   124   113   114    1
   125   108   109    2
   126   142   141    1
   127   142   143    1
   128   110   112    1
   129   114   115    1
   130   133   134    1
   131   133   132    1
   132   129   128    2
   133   115   116    2
   134   131   132    1
   135   131   130    1
   136   128   127    1
   137   125   123    1
   138   119   120    1
   139   130   127    1
   140   126   127    1
   141   126   121   am
   142   123   120    1
   143   123   124    1
   144   120   121    1
   145   121   122    2
   146    98    96    1
   147    96    95    2
   148    96    97    1
   149    95    94    1
   150    88    89    1
   151    93    94    1
   152    93    92    1
   153    92    89    1
   154    89    90    1
   155    90    91    2
