@<TRIPOS>MOLECULE
tmp/1kgtA01.pdb
 174 164 0 0 0
SMALL
GASTEIGER

@<TRIPOS>ATOM
      1  N         55.0700   91.6520    0.5170 N.3   141  ASP141     -0.1225
      2  CA        55.6090   90.3150    0.3930 C.3   141  ASP141      0.1805
      3  C         54.5890   89.2710   -0.1200 C.2   141  ASP141      0.2598
      4  O         53.4500   89.5840   -0.3450 O.2   141  ASP141     -0.2718
      5  CB        56.2300   89.8790    1.7180 C.3   141  ASP141      0.1424
      6  CG        57.3240   88.8410    1.5310 C.2   141  ASP141      0.3668
      7  OD1       57.6130   88.4860    0.3620 O.co2 141  ASP141     -0.2456
      8  OD2       57.8880   88.4030    2.5550 O.co2 141  ASP141     -0.2456
      9  N         55.0280   88.0240   -0.2810 N.am  142  THR142     -0.1953
     10  CA        54.2120   86.9690   -0.8660 C.3   142  THR142      0.1897
     11  C         52.9190   86.6030   -0.1650 C.2   142  THR142      0.2313
     12  O         52.8860   86.4570    1.0570 O.2   142  THR142     -0.2863
     13  CB        55.0590   85.7470   -1.1770 C.3   142  THR142      0.1794
     14  OG1       56.2090   86.1750   -1.9070 O.3   142  THR142     -0.2208
     15  CG2       54.2840   84.7630   -2.0440 C.3   142  THR142      0.0378
     16  N         57.1230   97.6500    5.2010 N.3   157  HIS157     -0.1241
     17  CA        57.3050   96.2500    4.8740 C.3   157  HIS157      0.1621
     18  C         56.1210   95.4110    5.3650 C.2   157  HIS157      0.2264
     19  O         55.9270   95.2170    6.5660 O.2   157  HIS157     -0.2867
     20  CB        58.6440   95.6360    5.3940 C.3   157  HIS157      0.0745
     21  CG        58.8700   94.2170    4.9020 C.ar  157  HIS157      0.0817
     22  ND1       59.3790   93.9320    3.6500 N.ar  157  HIS157     -0.2268
     23  CD2       58.5510   93.0190    5.4530 C.ar  157  HIS157      0.1154
     24  CE1       59.3970   92.6260    3.4640 C.ar  157  HIS157      0.1986
     25  NE2       58.8880   92.0490    4.5360 N.ar  157  HIS157     -0.2212
     26  N         55.0650   91.8960    5.5050 N.3   159  SER159     -0.1202
     27  CA        55.6440   90.5540    5.2850 C.3   159  SER159      0.2020
     28  C         54.6590   89.5580    4.6550 C.2   159  SER159      0.2619
     29  O         53.4850   89.8590    4.4750 O.2   159  SER159     -0.2717
     30  CB        56.1960   89.9720    6.5740 C.3   159  SER159      0.2103
     31  OG        57.0350   90.8930    7.2290 O.3   159  SER159     -0.2182
     32  N         55.1470   88.3510    4.3750 N.am  160  GLY160     -0.1956
     33  CA        54.3300   87.3170    3.7700 C.3   160  GLY160      0.1869
     34  C         53.0490   86.9730    4.5550 C.2   160  GLY160      0.2309
     35  O         53.0350   86.8700    5.7880 O.2   160  GLY160     -0.2863
     36  N         56.8050   98.2440    9.9520 N.3   183  PHE183     -0.1241
     37  CA        57.1660   96.8880    9.5470 C.3   183  PHE183      0.1605
     38  C         56.0740   95.9630   10.0340 C.2   183  PHE183      0.2264
     39  O         55.7970   95.9500   11.2300 O.2   183  PHE183     -0.2867
     40  CB        58.5120   96.4450   10.1920 C.3   183  PHE183      0.0534
     41  CG        58.8030   94.9820   10.0000 C.ar  183  PHE183     -0.0203
     42  CD1       59.3740   94.5230    8.8150 C.ar  183  PHE183     -0.0042
     43  CD2       58.4080   94.0500   10.9400 C.ar  183  PHE183     -0.0042
     44  CE1       59.5880   93.1460    8.5920 C.ar  183  PHE183     -0.0003
     45  CE2       58.6340   92.6550   10.7220 C.ar  183  PHE183     -0.0003
     46  CZ        59.2050   92.2260    9.5390 C.ar  183  PHE183     -0.0000
     47  N         54.9270   92.1110   10.6100 N.3   185  GLY185     -0.1210
     48  CA        55.3720   90.7200   10.6610 C.3   185  GLY185      0.1956
     49  C         54.4830   89.7360    9.9190 C.2   185  GLY185      0.2612
     50  O         53.2790   89.9530    9.7390 O.2   185  GLY185     -0.2717
     51  N         55.1000   88.6370    9.5320 N.am  186  ALA186     -0.1965
     52  CA        54.4810   87.5580    8.7860 C.3   186  ALA186      0.1728
     53  C         53.1510   87.1080    9.3470 C.2   186  ALA186      0.2616
     54  O         52.9860   86.9500   10.5680 O.2   186  ALA186     -0.2715
     55  CB        55.4460   86.3670    8.7220 C.3   186  ALA186      0.0334
     56  N         52.2250   86.8320    8.4410 N.am  187  ARG187     -0.1977
     57  CA        50.8750   86.3610    8.8020 C.3   187  ARG187      0.1597
     58  C         50.0880   87.2130    9.8010 C.2   187  ARG187      0.2287
     59  O         49.1830   86.7460   10.4520 O.2   187  ARG187     -0.2864
     60  CB        50.8410   84.8680    9.2110 C.3   187  ARG187      0.0334
     61  CG        51.8860   83.9400    8.5900 C.3   187  ARG187      0.0492
     62  CD        51.4030   83.1190    7.3540 C.3   187  ARG187      0.2205
     63  NE        52.3370   83.3880    6.2470 N.pl3 187  ARG187     -0.0865
     64  CZ        52.4210   82.7170    5.1070 C.cat 187  ARG187      0.5346
     65  NH1       51.6510   81.6860    4.8630 N.pl3 187  ARG187      0.1354
     66  NH2       53.2920   83.0920    4.2050 N.pl3 187  ARG187      0.1354
     67  N         56.6380   98.4860   14.8130 N.3   201  VAL201     -0.1231
     68  CA        57.0110   97.1390   14.3910 C.3   201  VAL201      0.1692
     69  C         56.0360   96.1520   14.9970 C.2   201  VAL201      0.2592
     70  O         55.9460   96.0070   16.2170 O.2   201  VAL201     -0.2718
     71  CB        58.4910   96.7780   14.8510 C.3   201  VAL201      0.0266
     72  CG1       58.7740   95.2710   14.7320 C.3   201  VAL201      0.0020
     73  CG2       59.5430   97.5790   14.0630 C.3   201  VAL201      0.0020
     74  N         55.2720   95.4910   14.1420 N.am  202  ILE202     -0.1966
     75  CA        54.2960   94.4930   14.6170 C.3   202  ILE202      0.1727
     76  C         54.9360   93.1510   14.3440 C.2   202  ILE202      0.2617
     77  O         55.4130   92.9100   13.2320 O.2   202  ILE202     -0.2715
     78  CB        53.0000   94.5700   13.7810 C.3   202  ILE202      0.0290
     79  CG1       52.5990   96.0490   13.5540 C.3   202  ILE202      0.0022
     80  CG2       51.9010   93.6940   14.3870 C.3   202  ILE202      0.0023
     81  CD1       52.1470   96.7550   14.8300 C.3   202  ILE202      0.0001
     82  N         55.0050   92.3070   15.3590 N.am  203  SER203     -0.1936
     83  CA        55.6230   91.0030   15.2020 C.3   203  SER203      0.2055
     84  C         54.7630   90.0940   14.2780 C.2   203  SER203      0.2642
     85  O         53.8550   90.5760   13.6140 O.2   203  SER203     -0.2714
     86  CB        55.7840   90.3580   16.5770 C.3   203  SER203      0.2130
     87  OG        56.7440   89.3380   16.5190 O.3   203  SER203     -0.2179
     88  N         55.0630   88.7930   14.2680 N.am  204  MET204     -0.1976
     89  CA        54.3400   87.7730   13.4700 C.3   204  MET204      0.1605
     90  C         53.0550   87.3250   14.1680 C.2   204  MET204      0.2287
     91  O         52.9720   87.3050   15.4020 O.2   204  MET204     -0.2864
     92  CB        55.2000   86.4950   13.3600 C.3   204  MET204      0.0413
     93  CG        56.5960   86.6990   12.8910 C.3   204  MET204      0.0598
     94  SD        57.4480   85.1220   12.8520 S.3   204  MET204     -0.1393
     95  CE        58.0610   85.0600   14.4240 C.3   204  MET204      0.0692
     96  N         52.6940   97.0730   28.7970 N.3   217  ARG217     -0.1245
     97  CA        53.1790   96.5560   30.0690 C.3   217  ARG217      0.1563
     98  C         53.8340   97.6390   30.9650 C.2   217  ARG217      0.2260
     99  O         53.7620   97.5700   32.2100 O.2   217  ARG217     -0.2867
    100  CB        54.0760   95.3180   29.8760 C.3   217  ARG217      0.0307
    101  CG        55.1520   95.4690   28.8330 C.3   217  ARG217      0.0489
    102  CD        56.2090   94.3970   29.0350 C.3   217  ARG217      0.2205
    103  NE        57.3960   94.6260   28.2090 N.pl3 217  ARG217     -0.0865
    104  CZ        58.3310   93.7060   27.9690 C.cat 217  ARG217      0.5346
    105  NH1       58.2150   92.4950   28.4810 N.pl3 217  ARG217      0.1354
    106  NH2       59.3820   93.9880   27.2140 N.pl3 217  ARG217      0.1354
    107  N         56.7930   98.4220   19.3410 N.3   232  VAL232     -0.1245
    108  CA        57.1320   97.0860   18.9060 C.3   232  VAL232      0.1561
    109  C         56.0400   96.2280   19.5560 C.2   232  VAL232      0.2260
    110  O         55.8840   96.2340   20.7800 O.2   232  VAL232     -0.2867
    111  CB        58.5550   96.6680   19.3850 C.3   232  VAL232      0.0252
    112  CG1       58.8270   95.1820   19.0310 C.3   232  VAL232      0.0019
    113  CG2       59.6250   97.5800   18.7320 C.3   232  VAL232      0.0019
    114  N         53.7830   92.5500   20.0310 N.3   234  VAL234     -0.1231
    115  CA        53.8060   91.0940   19.9210 C.3   234  VAL234      0.1692
    116  C         52.5520   90.5440   20.5830 C.2   234  VAL234      0.2592
    117  O         51.9100   91.2220   21.3600 O.2   234  VAL234     -0.2718
    118  CB        55.1090   90.4780   20.6070 C.3   234  VAL234      0.0266
    119  CG1       56.3380   91.2310   20.1840 C.3   234  VAL234      0.0020
    120  CG2       55.0030   90.5030   22.1340 C.3   234  VAL234      0.0020
    121  N         52.2040   89.3130   20.2550 N.am  235  SER235     -0.1952
    122  CA        51.0180   88.6710   20.8070 C.3   235  SER235      0.1924
    123  C         51.1780   88.2810   22.2420 C.2   235  SER235      0.2314
    124  O         52.2260   87.8130   22.6650 O.2   235  SER235     -0.2863
    125  CB        50.7080   87.3920   20.0210 C.3   235  SER235      0.2116
    126  OG        50.1650   87.6830   18.7610 O.3   235  SER235     -0.2180
    127  N         55.7200   95.6720   23.9240 N.3   253  VAL253     -0.1231
    128  CA        56.8070   95.2240   24.7910 C.3   253  VAL253      0.1692
    129  C         57.9470   96.2320   24.8840 C.2   253  VAL253      0.2591
    130  O         58.7560   96.1740   25.8050 O.2   253  VAL253     -0.2718
    131  CB        57.3880   93.8930   24.2780 C.3   253  VAL253      0.0266
    132  CG1       56.4130   92.7390   24.5210 C.3   253  VAL253      0.0020
    133  CG2       57.6860   94.0220   22.8050 C.3   253  VAL253      0.0020
    134  N         58.0210   97.1590   23.9380 N.am  254  LYS254     -0.1980
    135  CA        59.0950   98.1200   23.9850 C.3   254  LYS254      0.1596
    136  C         58.9940   99.1400   22.8840 C.2   254  LYS254      0.2287
    137  O         58.0770   99.0860   22.0420 O.2   254  LYS254     -0.2864
    138  CB        60.4260   97.3870   23.8550 C.3   254  LYS254      0.0298
    139  CG        60.8700   97.1580   22.4030 C.3   254  LYS254      0.0038
    140  CD        61.9370   96.0510   22.2780 C.3   254  LYS254      0.0206
    141  CE        63.0750   96.4540   21.3010 C.3   254  LYS254      0.1093
    142  NZ        64.3840   95.7880   21.6300 N.3   254  LYS254     -0.1314
    143  N         68.5710   97.1070   17.9960 N.3   259  LYS259     -0.1231
    144  CA        68.4460   95.6540   17.9550 C.3   259  LYS259      0.1693
    145  C         67.2830   95.3340   17.0580 C.2   259  LYS259      0.2592
    146  O         67.4180   94.5680   16.0970 O.2   259  LYS259     -0.2718
    147  CB        68.1630   95.1210   19.3350 C.3   259  LYS259      0.0285
    148  CG        67.4400   93.8060   19.3210 C.3   259  LYS259      0.0035
    149  CD        67.4580   93.1830   20.6980 C.3   259  LYS259      0.0206
    150  CE        68.1140   91.7910   20.6650 C.3   259  LYS259      0.1093
    151  NZ        67.3050   90.7530   21.3960 N.3   259  LYS259     -0.1314
    152  N         66.1460   95.9660   17.3410 N.am  260  THR260     -0.1953
    153  CA        64.9660   95.7820   16.5290 C.3   260  THR260      0.1897
    154  C         65.2460   96.1600   15.0840 C.2   260  THR260      0.2313
    155  O         64.8910   95.4230   14.1740 O.2   260  THR260     -0.2863
    156  CB        63.7880   96.6460   16.9910 C.3   260  THR260      0.1794
    157  OG1       63.6360   96.5710   18.4140 O.3   260  THR260     -0.2208
    158  CG2       62.5070   96.1300   16.3290 C.3   260  THR260      0.0378
    159  N         66.6840   93.7090   12.4420 N.3   263  LYS263     -0.1231
    160  CA        65.8520   92.6180   11.9440 C.3   263  LYS263      0.1693
    161  C         64.7730   93.0110   10.9450 C.2   263  LYS263      0.2591
    162  O         64.2520   92.1680   10.2160 O.2   263  LYS263     -0.2718
    163  CB        65.2040   91.9370   13.1310 C.3   263  LYS263      0.0285
    164  CG        65.9470   92.1890   14.4030 C.3   263  LYS263      0.0035
    165  CD        66.1990   90.8910   15.1550 C.3   263  LYS263      0.0206
    166  CE        66.4230   91.1260   16.6690 C.3   263  LYS263      0.1093
    167  NZ        65.8680   90.0290   17.5670 N.3   263  LYS263     -0.1314
    168  N         64.4210   94.2880   10.9200 N.am  264  VAL264     -0.1980
    169  CA        63.3080   94.7340   10.0900 C.3   264  VAL264      0.1595
    170  C         63.5920   95.6990    8.9550 C.2   264  VAL264      0.2287
    171  O         62.6610   96.2180    8.3060 O.2   264  VAL264     -0.2864
    172  CB        62.2010   95.2830   10.9660 C.3   264  VAL264      0.0276
    173  CG1       62.0210   94.3890   12.1730 C.3   264  VAL264      0.0022
    174  CG2       62.5350   96.7130   11.4130 C.3   264  VAL264      0.0022
@<TRIPOS>BOND
     1    15    13    1
     2    14    13    1
     3    13    10    1
     4    10     9    1
     5    10    11    1
     6     4     3    2
     7     9     3   am
     8    11    12    2
     9     3     2    1
    10     7     6   ar
    11     2     1    1
    12     2     5    1
    13     6     5    1
    14     6     8   ar
    15    24    22   ar
    16    24    25   ar
    17    22    21   ar
    18    33    32    1
    19    33    34    1
    20    66    64    1
    21    32    28   am
    22    29    28    2
    23    25    23   ar
    24    34    35    2
    25    28    27    1
    26    65    64    1
    27    17    16    1
    28    17    18    1
    29    17    20    1
    30    21    20    1
    31    21    23   ar
    32    64    63    2
    33    27    26    1
    34    27    30    1
    35    18    19    2
    36    63    62    1
    37    30    31    1
    38    62    61    1
    39   171   170    2
    40    56    57    1
    41    56    53   am
    42    61    60    1
    43    44    42   ar
    44    44    46   ar
    45    55    52    1
    46    52    53    1
    47    52    51    1
    48    57    60    1
    49    57    58    1
    50    42    41   ar
    51   170   169    1
    52    53    54    2
    53    51    49   am
    54    46    45   ar
    55    37    36    1
    56    37    38    1
    57    37    40    1
    58    50    49    2
    59    58    59    2
    60    49    48    1
    61    41    40    1
    62    41    43   ar
    63    38    39    2
    64   169   168    1
    65   169   172    1
    66   162   161    2
    67    47    48    1
    68    45    43   ar
    69   168   161   am
    70   161   160    1
    71   172   174    1
    72   172   173    1
    73   160   159    1
    74   160   163    1
    75    94    93    1
    76    94    95    1
    77    93    92    1
    78   163   164    1
    79    77    76    2
    80    92    89    1
    81    89    90    1
    82    89    88    1
    83    79    78    1
    84    79    81    1
    85    85    84    2
    86    78    80    1
    87    78    75    1
    88    73    71    1
    89    74    75    1
    90    74    69   am
    91    90    91    2
    92   155   154    2
    93    88    84   am
    94    84    83    1
    95    76    75    1
    96    76    82   am
    97    68    67    1
    98    68    71    1
    99    68    69    1
   100   164   165    1
   101    72    71    1
   102    69    70    2
   103   154   153    1
   104   165   166    1
   105    83    82    1
   106    83    86    1
   107   146   145    2
   108   158   156    1
   109    87    86    1
   110   153   156    1
   111   153   152    1
   112   166   167    1
   113   156   157    1
   114   145   152   am
   115   145   144    1
   116   144   143    1
   117   144   147    1
   118   113   111    1
   119   126   125    1
   120   108   107    1
   121   108   111    1
   122   108   109    1
   123   112   111    1
   124   148   147    1
   125   148   149    1
   126   109   110    2
   127   115   114    1
   128   115   116    1
   129   115   118    1
   130   125   122    1
   131   119   118    1
   132   121   116   am
   133   121   122    1
   134   116   117    2
   135   118   120    1
   136   150   149    1
   137   150   151    1
   138   122   123    1
   139   141   142    1
   140   141   140    1
   141   137   136    2
   142   123   124    2
   143   140   139    1
   144   139   138    1
   145   133   131    1
   146   136   135    1
   147   138   135    1
   148   127   128    1
   149   134   135    1
   150   134   129   am
   151   131   132    1
   152   131   128    1
   153   128   129    1
   154   129   130    2
   155   106   104    1
   156   104   103    2
   157   104   105    1
   158   103   102    1
   159    96    97    1
   160   101   102    1
   161   101   100    1
   162   100    97    1
   163    97    98    1
   164    98    99    2
