@<TRIPOS>MOLECULE
tmp/1kgzB00.pdb
 130 123 0 0 0
SMALL
GASTEIGER

@<TRIPOS>ATOM
      1  N         27.4970   19.9490   54.8160 N.3    79  VAL79      -0.1231
      2  CA        26.8410   19.1420   53.7880 C.3    79  VAL79       0.1692
      3  C         27.7780   18.7170   52.6650 C.2    79  VAL79       0.2593
      4  O         28.8200   19.3350   52.4400 O.2    79  VAL79      -0.2718
      5  CB        25.6880   19.8940   53.1490 C.3    79  VAL79       0.0266
      6  CG1       24.4560   19.7110   53.9830 C.3    79  VAL79       0.0020
      7  CG2       26.0480   21.3860   53.0290 C.3    79  VAL79       0.0020
      8  N         27.3860   17.6650   51.9540 N.am   80  GLY80      -0.1942
      9  CA        28.2010   17.1580   50.8720 C.3    80  GLY80       0.2014
     10  C         27.3830   16.8660   49.6370 C.2    80  GLY80       0.2640
     11  O         26.1610   16.7560   49.7050 O.2    80  GLY80      -0.2714
     12  N         28.0630   16.7540   48.5040 N.am   81  THR81      -0.1936
     13  CA        27.4310   16.4630   47.2190 C.3    81  THR81       0.2028
     14  C         26.7000   15.1290   47.2460 C.2    81  THR81       0.2643
     15  O         25.8650   14.8530   46.3810 O.2    81  THR81      -0.2714
     16  CB        28.4700   16.3260   46.1280 C.3    81  THR81       0.1808
     17  OG1       29.1820   15.1000   46.3310 O.3    81  THR81      -0.2208
     18  CG2       29.4490   17.4730   46.1820 C.3    81  THR81       0.0379
     19  N         27.0220   14.2950   48.2330 N.am   82  GLY82      -0.1939
     20  CA        26.4050   12.9820   48.3090 C.3    82  GLY82       0.2014
     21  C         26.8650   12.1810   47.1010 C.2    82  GLY82       0.2639
     22  O         27.8640   12.5230   46.4710 O.2    82  GLY82      -0.2714
     23  N         26.1450   11.1190   46.7630 N.am   83  GLY83      -0.1939
     24  CA        26.5220   10.3150   45.6080 C.3    83  GLY83       0.2014
     25  C         27.9270    9.7230   45.6110 C.2    83  GLY83       0.2638
     26  O         28.4940    9.5360   44.5380 O.2    83  GLY83      -0.2714
     27  N         28.4920    9.4210   46.7850 N.am   84  ASP84      -0.1971
     28  CA        29.8380    8.8430   46.8570 C.3    84  ASP84       0.1709
     29  C         29.8410    7.3200   46.7300 C.2    84  ASP84       0.2293
     30  O         30.9040    6.6910   46.7630 O.2    84  ASP84      -0.2864
     31  CB        30.5610    9.2510   48.1570 C.3    84  ASP84       0.1436
     32  CG        29.8600    8.7580   49.4210 C.2    84  ASP84       0.3671
     33  OD1       29.0830    7.7820   49.3440 O.co2  84  ASP84      -0.2456
     34  OD2       30.0980    9.3360   50.5070 O.co2  84  ASP84      -0.2456
     35  N         26.3700    5.7140   56.9380 N.3    89  ILE89      -0.1231
     36  CA        25.3120    6.3200   57.7250 C.3    89  ILE89       0.1692
     37  C         25.3560    7.8270   57.4330 C.2    89  ILE89       0.2592
     38  O         26.2700    8.3050   56.7480 O.2    89  ILE89      -0.2718
     39  CB        25.5420    6.0840   59.2260 C.3    89  ILE89       0.0266
     40  CG1       26.9440    6.5520   59.6090 C.3    89  ILE89       0.0019
     41  CG2       25.3730    4.6120   59.5530 C.3    89  ILE89       0.0020
     42  CD1       27.2060    6.5230   61.0790 C.3    89  ILE89       0.0001
     43  N         24.3870    8.5750   57.9560 N.am   90  ASN90      -0.1960
     44  CA        24.3230   10.0110   57.7090 C.3    90  ASN90       0.1819
     45  C         25.2660   10.8090   58.6020 C.2    90  ASN90       0.2621
     46  O         24.8800   11.3120   59.6630 O.2    90  ASN90      -0.2715
     47  CB        22.8810   10.4850   57.8690 C.3    90  ASN90       0.1195
     48  CG        21.9080    9.6400   57.0590 C.2    90  ASN90       0.2630
     49  OD1       21.4750    8.5800   57.5040 O.2    90  ASN90      -0.2716
     50  ND2       21.5910   10.0890   55.8500 N.am   90  ASN90      -0.0877
     51  N         26.5100   10.9290   58.1460 N.am   91  ILE91      -0.1963
     52  CA        27.5490   11.6380   58.8870 C.3    91  ILE91       0.1727
     53  C         27.2720   13.1070   59.1830 C.2    91  ILE91       0.2617
     54  O         27.2670   13.5150   60.3440 O.2    91  ILE91      -0.2715
     55  CB        28.9200   11.5440   58.1580 C.3    91  ILE91       0.0290
     56  CG1       29.3460   10.0790   58.0290 C.3    91  ILE91       0.0022
     57  CG2       29.9830   12.3230   58.9320 C.3    91  ILE91       0.0023
     58  CD1       29.4930    9.3900   59.3450 C.3    91  ILE91       0.0001
     59  N         27.0470   13.9040   58.1450 N.am   92  SER92      -0.1936
     60  CA        26.8060   15.3350   58.3420 C.3    92  SER92       0.2055
     61  C         25.6190   15.6810   59.2410 C.2    92  SER92       0.2643
     62  O         25.6960   16.6210   60.0300 O.2    92  SER92      -0.2714
     63  CB        26.6400   16.0260   56.9910 C.3    92  SER92       0.2130
     64  OG        27.8220   15.8690   56.2290 O.3    92  SER92      -0.2179
     65  N         24.5220   14.9390   59.1190 N.am   93  THR93      -0.1950
     66  CA        23.3430   15.1960   59.9380 C.3    93  THR93       0.1897
     67  C         23.6730   14.9530   61.4050 C.2    93  THR93       0.2313
     68  O         23.3410   15.7630   62.2620 O.2    93  THR93      -0.2863
     69  CB        22.1790   14.2690   59.5680 C.3    93  THR93       0.1794
     70  OG1       21.8150   14.4640   58.1960 O.3    93  THR93      -0.2208
     71  CG2       20.9850   14.5550   60.4680 C.3    93  THR93       0.0378
     72  N         22.0610   23.6920   58.9730 N.3   108  LYS108     -0.1245
     73  CA        22.2850   22.7270   57.9160 C.3   108  LYS108      0.1561
     74  C         21.2580   22.7610   56.7950 C.2   108  LYS108      0.2260
     75  O         20.0480   22.7890   57.0280 O.2   108  LYS108     -0.2867
     76  CB        22.3520   21.3040   58.4900 C.3   108  LYS108      0.0271
     77  CG        22.8190   20.3120   57.4440 C.3   108  LYS108      0.0035
     78  CD        22.7220   18.8780   57.8840 C.3   108  LYS108      0.0206
     79  CE        23.3000   17.9710   56.8040 C.3   108  LYS108      0.1093
     80  NZ        22.6920   18.2340   55.4710 N.3   108  LYS108     -0.1314
     81  N         19.7360   20.8240   53.5150 N.3   110  GLY110     -0.1210
     82  CA        19.6300   19.4520   53.0510 C.3   110  GLY110      0.1956
     83  C         18.9910   19.3430   51.6850 C.2   110  GLY110      0.2611
     84  O         17.9930   20.0070   51.4040 O.2   110  GLY110     -0.2717
     85  N         19.5640   18.5080   50.8280 N.am  111  ASN111     -0.1974
     86  CA        19.0230   18.3230   49.4870 C.3   111  ASN111      0.1688
     87  C         18.1200   17.0990   49.4350 C.2   111  ASN111      0.2292
     88  O         18.0070   16.3500   50.4050 O.2   111  ASN111     -0.2864
     89  CB        20.1490   18.1540   48.4600 C.3   111  ASN111      0.1181
     90  CG        21.0030   19.3980   48.3120 C.2   111  ASN111      0.2629
     91  OD1       20.4980   20.4830   48.0110 O.2   111  ASN111     -0.2716
     92  ND2       22.3100   19.2460   48.5140 N.am  111  ASN111     -0.0877
     93  N         16.9700   13.5460   47.1790 N.3   113  SER113     -0.1217
     94  CA        17.5370   12.5490   46.2730 C.3   113  SER113      0.1889
     95  C         17.1190   11.1280   46.6450 C.2   113  SER113      0.2288
     96  O         17.4350   10.6410   47.7340 O.2   113  SER113     -0.2866
     97  CB        19.0660   12.6450   46.2750 C.3   113  SER113      0.2089
     98  OG        19.6430   11.6810   45.4130 O.3   113  SER113     -0.2183
     99  N         16.0090    7.2470   51.8000 N.3   116  ALA116     -0.1231
    100  CA        17.4570    7.0800   51.6880 C.3   116  ALA116      0.1694
    101  C         18.1370    8.4420   51.5150 C.2   116  ALA116      0.2593
    102  O         18.6190    8.7840   50.4280 O.2   116  ALA116     -0.2718
    103  CB        17.7960    6.1590   50.5130 C.3   116  ALA116      0.0304
    104  N         18.1600    9.2110   52.6010 N.am  117  GLY117     -0.1942
    105  CA        18.7700   10.5290   52.5930 C.3   117  GLY117      0.2014
    106  C         18.6210   11.2050   53.9470 C.2   117  GLY117      0.2639
    107  O         17.7580   10.8350   54.7460 O.2   117  GLY117     -0.2714
    108  N         19.4620   12.2020   54.1990 N.am  118  SER118     -0.1949
    109  CA        19.4510   12.9460   55.4550 C.3   118  SER118      0.1924
    110  C         18.1010   13.5630   55.8490 C.2   118  SER118      0.2314
    111  O         17.7120   13.5130   57.0140 O.2   118  SER118     -0.2863
    112  CB        20.5240   14.0340   55.3970 C.3   118  SER118      0.2116
    113  OG        20.2700   15.0840   56.3050 O.3   118  SER118     -0.2180
    114  N         32.3110   11.5310   50.8260 N.3   222  ASP222     -0.1225
    115  CA        32.2800   12.9850   50.7170 C.3   222  ASP222      0.1805
    116  C         32.2130   13.5110   52.1580 C.2   222  ASP222      0.2597
    117  O         31.4110   14.3850   52.4920 O.2   222  ASP222     -0.2718
    118  CB        31.0600   13.4560   49.9270 C.3   222  ASP222      0.1424
    119  CG        29.7560   13.0090   50.5440 C.2   222  ASP222      0.3668
    120  OD1       28.7340   13.6830   50.3120 O.co2 222  ASP222     -0.2456
    121  OD2       29.7460   11.9820   51.2510 O.co2 222  ASP222     -0.2456
    122  N         33.0720   12.9600   53.0090 N.am  223  GLU223     -0.1979
    123  CA        33.1180   13.3350   54.4180 C.3   223  GLU223      0.1602
    124  C         34.5640   13.1750   54.8440 C.2   223  GLU223      0.2287
    125  O         35.3970   12.7100   54.0730 O.2   223  GLU223     -0.2864
    126  CB        32.2910   12.3570   55.2680 C.3   223  GLU223      0.0415
    127  CG        30.9740   11.9030   54.6670 C.3   223  GLU223      0.1163
    128  CD        29.8460   12.8860   54.9090 C.2   223  GLU223      0.3649
    129  OE1       28.8500   12.8420   54.1520 O.co2 223  GLU223     -0.2457
    130  OE2       29.9510   13.6940   55.8610 O.co2 223  GLU223     -0.2457
@<TRIPOS>BOND
     1    26    25    2
     2    98    97    1
     3    24    25    1
     4    24    23    1
     5    25    27   am
     6    16    18    1
     7    16    17    1
     8    16    13    1
     9    94    97    1
    10    94    95    1
    11    94    93    1
    12    15    14    2
    13    22    21    2
    14    95    96    2
    15    29    30    2
    16    29    28    1
    17    23    21   am
    18    27    28    1
    19    28    31    1
    20    21    20    1
    21    13    14    1
    22    13    12    1
    23    14    19   am
    24    91    90    2
    25    31    32    1
    26    19    20    1
    27    90    89    1
    28    90    92   am
    29    89    86    1
    30    12    10   am
    31    33    32   ar
    32    32    34   ar
    33    87    86    1
    34    87    88    2
    35    86    85    1
    36    10    11    2
    37    10     9    1
    38   118   119    1
    39   118   115    1
    40   120   119   ar
    41   102   101    2
    42   103   100    1
    43   119   121   ar
    44   115   114    1
    45   115   116    1
    46    85    83   am
    47     9     8    1
    48    84    83    2
    49   101   100    1
    50   101   104   am
    51    83    82    1
    52   100    99    1
    53     8     3   am
    54   116   117    2
    55   116   122   am
    56     4     3    2
    57   105   104    1
    58   105   106    1
    59     3     2    1
    60   122   123    1
    61     7     5    1
    62    82    81    1
    63     5     2    1
    64     5     6    1
    65     2     1    1
    66   106   108   am
    67   106   107    2
    68   125   124    2
    69   129   128   ar
    70   108   109    1
    71   123   124    1
    72   123   126    1
    73   127   128    1
    74   127   126    1
    75   128   130   ar
    76   112   109    1
    77   112   113    1
    78   109   110    1
    79    80    79    1
    80   110   111    2
    81    50    48   am
    82    64    63    1
    83    38    37    2
    84    74    75    2
    85    74    73    1
    86    79    78    1
    87    35    36    1
    88    63    60    1
    89    48    49    2
    90    48    47    1
    91    37    36    1
    92    37    43   am
    93    77    78    1
    94    77    76    1
    95    44    47    1
    96    44    43    1
    97    44    45    1
    98    36    39    1
    99    73    76    1
   100    73    72    1
   101    56    55    1
   102    56    58    1
   103    59    60    1
   104    59    53   am
   105    51    45   am
   106    51    52    1
   107    55    52    1
   108    55    57    1
   109    70    69    1
   110    60    61    1
   111    45    46    2
   112    52    53    1
   113    65    61   am
   114    65    66    1
   115    53    54    2
   116    39    41    1
   117    39    40    1
   118    61    62    2
   119    69    66    1
   120    69    71    1
   121    40    42    1
   122    66    67    1
   123    67    68    2
