@<TRIPOS>MOLECULE
tmp/1kh3A01.pdb
 144 135 0 0 0
SMALL
GASTEIGER

@<TRIPOS>ATOM
      1  N         -7.6830   57.0250   50.6150 N.3    84  TYR84      -0.1241
      2  CA        -7.0880   57.5580   51.8280 C.3    84  TYR84       0.1605
      3  C         -7.0670   59.0730   51.9530 C.2    84  TYR84       0.2264
      4  O         -6.3430   59.7570   51.2370 O.2    84  TYR84      -0.2867
      5  CB        -5.6770   56.9940   51.9970 C.3    84  TYR84       0.0534
      6  CG        -5.0360   57.3320   53.3200 C.ar   84  TYR84      -0.0201
      7  CD1       -5.7860   57.3510   54.4970 C.ar   84  TYR84      -0.0009
      8  CD2       -3.6740   57.5950   53.4030 C.ar   84  TYR84      -0.0009
      9  CE1       -5.1910   57.6240   55.7250 C.ar   84  TYR84       0.0417
     10  CE2       -3.0680   57.8630   54.6240 C.ar   84  TYR84       0.0417
     11  CZ        -3.8350   57.8760   55.7830 C.ar   84  TYR84       0.1957
     12  OH        -3.2350   58.1520   56.9870 O.3    84  TYR84      -0.2866
     13  N         -3.4250   60.4220   59.1750 N.3    88  THR88      -0.1203
     14  CA        -2.1560   60.3860   59.9060 C.3    88  THR88       0.1994
     15  C         -1.0630   61.1870   59.1910 C.2    88  THR88       0.2618
     16  O         -0.2540   61.8720   59.8230 O.2    88  THR88      -0.2717
     17  CB        -1.6640   58.9350   60.0890 C.3    88  THR88       0.1784
     18  OG1       -2.5970   58.2190   60.9020 O.3    88  THR88      -0.2211
     19  CG2       -0.2950   58.9000   60.7450 C.3    88  THR88       0.0376
     20  N         -1.0560   61.0980   57.8680 N.am   89  SER89      -0.1951
     21  CA        -0.0620   61.7770   57.0350 C.3    89  SER89       0.1924
     22  C          0.1580   63.2720   57.3070 C.2    89  SER89       0.2314
     23  O          1.2890   63.6780   57.5600 O.2    89  SER89      -0.2863
     24  CB        -0.4090   61.5660   55.5550 C.3    89  SER89       0.2116
     25  OG        -0.6250   60.1950   55.2810 O.3    89  SER89      -0.2180
     26  N          1.8020   64.3300   61.1190 N.3    92  ARG92      -0.1245
     27  CA         3.2210   64.1950   61.4370 C.3    92  ARG92       0.1563
     28  C          4.0920   65.4440   61.2440 C.2    92  ARG92       0.2260
     29  O          4.9310   65.7590   62.0970 O.2    92  ARG92      -0.2867
     30  CB         3.8110   63.0230   60.6570 C.3    92  ARG92       0.0307
     31  CG         3.0320   61.7230   60.8070 C.3    92  ARG92       0.0489
     32  CD         2.6090   61.4410   62.2530 C.3    92  ARG92       0.2205
     33  NE         2.3310   60.0230   62.4670 N.pl3  92  ARG92      -0.0865
     34  CZ         1.7840   59.5050   63.5690 C.cat  92  ARG92       0.5346
     35  NH1        1.4360   60.2910   64.5820 N.pl3  92  ARG92       0.1354
     36  NH2        1.6000   58.1920   63.6630 N.pl3  92  ARG92       0.1354
     37  N          5.8250   54.7400   57.1680 N.3   120  ASN120     -0.1225
     38  CA         5.9180   56.0500   56.5410 C.3   120  ASN120      0.1785
     39  C          6.1850   57.1980   57.5150 C.2   120  ASN120      0.2597
     40  O          6.7850   58.2100   57.1390 O.2   120  ASN120     -0.2718
     41  CB         4.6160   56.3520   55.7880 C.3   120  ASN120      0.1169
     42  CG         4.2250   55.2440   54.8260 C.2   120  ASN120      0.2627
     43  OD1        5.0060   54.8580   53.9550 O.2   120  ASN120     -0.2716
     44  ND2        3.0110   54.7260   54.9800 N.am  120  ASN120     -0.0877
     45  N          5.7470   57.0510   58.7650 N.am  121  ASP121     -0.1974
     46  CA         5.9160   58.1320   59.7340 C.3   121  ASP121      0.1709
     47  C          7.3520   58.5690   59.9920 C.2   121  ASP121      0.2293
     48  O          7.6130   59.7550   60.1860 O.2   121  ASP121     -0.2864
     49  CB         5.1990   57.7940   61.0490 C.3   121  ASP121      0.1436
     50  CG         3.6780   57.8130   60.9010 C.2   121  ASP121      0.3671
     51  OD1        3.1650   58.6820   60.1620 O.co2 121  ASP121     -0.2456
     52  OD2        2.9960   56.9760   61.5290 O.co2 121  ASP121     -0.2456
     53  N          8.1630   60.9760   57.2480 N.3   124  ARG124     -0.1245
     54  CA         7.4340   62.2180   57.4710 C.3   124  ARG124      0.1563
     55  C          8.1050   63.0400   58.5700 C.2   124  ARG124      0.2260
     56  O          8.3870   64.2190   58.3830 O.2   124  ARG124     -0.2867
     57  CB         5.9790   61.9150   57.8570 C.3   124  ARG124      0.0307
     58  CG         5.1690   61.2570   56.7430 C.3   124  ARG124      0.0489
     59  CD         3.8870   60.6080   57.2640 C.3   124  ARG124      0.2205
     60  NE         3.2210   59.8590   56.2060 N.pl3 124  ARG124     -0.0865
     61  CZ         2.2920   58.9270   56.3980 C.cat 124  ARG124      0.5346
     62  NH1        1.9050   58.6110   57.6270 N.pl3 124  ARG124      0.1354
     63  NH2        1.7400   58.3170   55.3550 N.pl3 124  ARG124      0.1354
     64  N         -2.9430   47.6950   65.1850 N.3   168  SER168     -0.1202
     65  CA        -2.3520   48.9770   65.5350 C.3   168  SER168      0.2020
     66  C         -3.3190   50.1050   65.1800 C.2   168  SER168      0.2619
     67  O         -4.0880   49.9900   64.2240 O.2   168  SER168     -0.2717
     68  CB        -1.0300   49.1420   64.7730 C.3   168  SER168      0.2103
     69  OG        -0.5350   50.4610   64.8700 O.3   168  SER168     -0.2182
     70  N         -3.2770   51.1950   65.9380 N.am  169  MET169     -0.1965
     71  CA        -4.1680   52.3190   65.6970 C.3   169  MET169      0.1736
     72  C         -3.4980   53.6710   65.8450 C.2   169  MET169      0.2616
     73  O         -2.5000   53.8120   66.5560 O.2   169  MET169     -0.2715
     74  CB        -5.3470   52.2950   66.6770 C.3   169  MET169      0.0427
     75  CG        -6.2710   51.1050   66.5780 C.3   169  MET169      0.0599
     76  SD        -7.4590   51.0580   67.9680 S.3   169  MET169     -0.1393
     77  CE        -7.9220   52.8100   68.1160 C.3   169  MET169      0.0692
     78  N         -4.0550   54.6570   65.1420 N.am  170  ASP170     -0.1971
     79  CA        -3.6150   56.0420   65.2400 C.3   170  ASP170      0.1709
     80  C         -4.8840   56.8700   65.1530 C.2   170  ASP170      0.2293
     81  O         -5.7310   56.6410   64.2790 O.2   170  ASP170     -0.2864
     82  CB        -2.6720   56.4810   64.1180 C.3   170  ASP170      0.1436
     83  CG        -2.0870   57.8620   64.3900 C.2   170  ASP170      0.3671
     84  OD1       -1.7620   58.6230   63.4510 O.co2 170  ASP170     -0.2456
     85  OD2       -1.9550   58.1910   65.5860 O.co2 170  ASP170     -0.2456
     86  N         -7.3190   55.4680   62.4880 N.3   177  SER177     -0.1217
     87  CA        -6.7620   54.4850   61.5830 C.3   177  SER177      0.1889
     88  C         -6.4660   53.1430   62.2420 C.2   177  SER177      0.2288
     89  O         -6.1370   53.0930   63.4310 O.2   177  SER177     -0.2866
     90  CB        -5.4850   55.0760   60.9970 C.3   177  SER177      0.2089
     91  OG        -4.6810   54.0640   60.4440 O.3   177  SER177     -0.2183
     92  N         -4.4950   49.1970   61.3590 N.3   179  GLU179     -0.1245
     93  CA        -3.7090   48.3290   60.4890 C.3   179  GLU179      0.1567
     94  C         -2.8420   47.3770   61.3110 C.2   179  GLU179      0.2260
     95  O         -2.5750   47.6240   62.4860 O.2   179  GLU179     -0.2867
     96  CB        -2.8190   49.1590   59.5570 C.3   179  GLU179      0.0388
     97  CG        -1.6910   49.9060   60.2370 C.3   179  GLU179      0.1160
     98  CD        -1.0520   50.9480   59.3200 C.2   179  GLU179      0.3649
     99  OE1        0.1670   51.1830   59.4340 O.co2 179  GLU179     -0.2457
    100  OE2       -1.7780   51.5420   58.4920 O.co2 179  GLU179     -0.2457
    101  N         -2.8440   49.7660   50.6920 N.3   253  GLU253     -0.1245
    102  CA        -2.0580   50.8860   50.1890 C.3   253  GLU253      0.1567
    103  C         -0.5870   50.5780   49.9480 C.2   253  GLU253      0.2260
    104  O         -0.0430   49.6160   50.4840 O.2   253  GLU253     -0.2867
    105  CB        -2.1480   52.0380   51.1920 C.3   253  GLU253      0.0388
    106  CG        -1.3790   51.7580   52.4890 C.3   253  GLU253      0.1160
    107  CD        -1.9190   52.5350   53.6760 C.2   253  GLU253      0.3649
    108  OE1       -3.0080   52.1760   54.1700 O.co2 253  GLU253     -0.2457
    109  OE2       -1.2610   53.4990   54.1090 O.co2 253  GLU253     -0.2457
    110  N          3.0820   51.7140   50.6540 N.3   255  ARG255     -0.1245
    111  CA         3.8670   52.5780   51.5280 C.3   255  ARG255      0.1563
    112  C          5.0150   53.1730   50.7390 C.2   255  ARG255      0.2260
    113  O          5.4340   52.6210   49.7220 O.2   255  ARG255     -0.2867
    114  CB         4.4470   51.8080   52.7210 C.3   255  ARG255      0.0307
    115  CG         3.4450   51.4720   53.8180 C.3   255  ARG255      0.0489
    116  CD         4.1780   51.0300   55.0890 C.3   255  ARG255      0.2205
    117  NE         3.2640   50.5240   56.1060 N.pl3 255  ARG255     -0.0865
    118  CZ         3.5520   49.5140   56.9210 C.cat 255  ARG255      0.5346
    119  NH1        4.7330   48.9080   56.8360 N.pl3 255  ARG255      0.1354
    120  NH2        2.6550   49.0990   57.8060 N.pl3 255  ARG255      0.1354
    121  N         -9.7330   52.9630   57.5950 N.3   265  TYR265     -0.1241
    122  CA        -9.8300   54.3360   58.0670 C.3   265  TYR265      0.1605
    123  C        -11.2420   54.8850   58.1940 C.2   265  TYR265      0.2264
    124  O        -12.0910   54.6550   57.3360 O.2   265  TYR265     -0.2867
    125  CB        -9.0360   55.2580   57.1200 C.3   265  TYR265      0.0534
    126  CG        -7.6240   54.7840   56.8160 C.ar  265  TYR265     -0.0201
    127  CD1       -7.3790   53.7710   55.8820 C.ar  265  TYR265     -0.0009
    128  CD2       -6.5390   55.3110   57.5090 C.ar  265  TYR265     -0.0009
    129  CE1       -6.0770   53.2950   55.6580 C.ar  265  TYR265      0.0417
    130  CE2       -5.2410   54.8460   57.2980 C.ar  265  TYR265      0.0417
    131  CZ        -5.0140   53.8400   56.3790 C.ar  265  TYR265      0.1957
    132  OH        -3.7300   53.3720   56.2350 O.3   265  TYR265     -0.2866
    133  N          1.4200   61.9590   51.6660 N.3   305  TYR305     -0.1241
    134  CA         1.5970   60.5920   52.1320 C.3   305  TYR305      0.1605
    135  C          3.0700   60.2450   52.3390 C.2   305  TYR305      0.2264
    136  O          3.4240   59.6070   53.3320 O.2   305  TYR305     -0.2867
    137  CB         0.9840   59.6190   51.1290 C.3   305  TYR305      0.0534
    138  CG         1.0030   58.1800   51.5810 C.ar  305  TYR305     -0.0201
    139  CD1        0.0190   57.6830   52.4380 C.ar  305  TYR305     -0.0009
    140  CD2        1.9990   57.3100   51.1440 C.ar  305  TYR305     -0.0009
    141  CE1        0.0250   56.3520   52.8410 C.ar  305  TYR305      0.0417
    142  CE2        2.0160   55.9760   51.5420 C.ar  305  TYR305      0.0417
    143  CZ         1.0270   55.5010   52.3850 C.ar  305  TYR305      0.1957
    144  OH         1.0240   54.1700   52.7400 O.3   305  TYR305     -0.2866
@<TRIPOS>BOND
     1   113   112    2
     2   103   102    1
     3   103   104    2
     4   102   101    1
     5   102   105    1
     6     1     2    1
     7   110   111    1
     8   112   111    1
     9   137   138    1
    10   137   134    1
    11   140   142   ar
    12   140   138   ar
    13   105   106    1
    14     4     3    2
    15   111   114    1
    16   142   143   ar
    17   138   139   ar
    18   133   134    1
    19     2     3    1
    20     2     5    1
    21     5     6    1
    22   134   135    1
    23   135   136    2
    24   143   144    1
    25   143   141   ar
    26   139   141   ar
    27   106   107    1
    28   114   115    1
    29     6     8   ar
    30     6     7   ar
    31     8    10   ar
    32   107   109   ar
    33   107   108   ar
    34   115   116    1
    35    43    42    2
    36     7     9   ar
    37    10    11   ar
    38    42    44   am
    39    42    41    1
    40   116   117    1
    41    25    24    1
    42    63    61    1
    43    24    21    1
    44   129   127   ar
    45   129   131   ar
    46     9    11   ar
    47    11    12    1
    48    41    38    1
    49   127   126   ar
    50   117   118    2
    51    60    61    2
    52    60    59    1
    53   132   131    1
    54   131   130   ar
    55    61    62    1
    56    38    37    1
    57    38    39    1
    58    58    59    1
    59    58    57    1
    60   126   125    1
    61   126   128   ar
    62   119   118    1
    63   118   120    1
    64    21    22    1
    65    21    20    1
    66   125   122    1
    67    40    39    2
    68    53    54    1
    69   130   128   ar
    70    22    23    2
    71   124   123    2
    72    54    57    1
    73    54    55    1
    74    39    45   am
    75   121   122    1
    76    20    15   am
    77   122   123    1
    78    56    55    2
    79   100    98   ar
    80    45    46    1
    81    13    14    1
    82    15    16    2
    83    15    14    1
    84    98    99   ar
    85    98    97    1
    86    96    97    1
    87    96    93    1
    88    46    47    1
    89    46    49    1
    90    14    17    1
    91    47    48    2
    92    17    19    1
    93    17    18    1
    94    51    50   ar
    95    91    90    1
    96    93    94    1
    97    93    92    1
    98    30    31    1
    99    30    27    1
   100    31    32    1
   101    50    49    1
   102    50    52   ar
   103    90    87    1
   104    26    27    1
   105    28    27    1
   106    28    29    2
   107    94    95    2
   108    87    88    1
   109    87    86    1
   110    88    89    2
   111    32    33    1
   112    33    34    2
   113    84    83   ar
   114    34    36    1
   115    34    35    1
   116    82    83    1
   117    82    79    1
   118    67    66    2
   119    81    80    2
   120    83    85   ar
   121    68    69    1
   122    68    65    1
   123    78    79    1
   124    78    72   am
   125    80    79    1
   126    66    65    1
   127    66    70   am
   128    64    65    1
   129    71    72    1
   130    71    70    1
   131    71    74    1
   132    72    73    2
   133    75    74    1
   134    75    76    1
   135    76    77    1
