@<TRIPOS>MOLECULE
tmp/1kh3A00.pdb
 180 171 0 0 0
SMALL
GASTEIGER

@<TRIPOS>ATOM
      1  N          9.4740   63.1200   70.8940 N.3     6  ALA6       -0.1231
      2  CA         8.0550   63.1920   70.5880 C.3     6  ALA6        0.1694
      3  C          7.5080   62.0920   71.4900 C.2     6  ALA6        0.2592
      4  O          7.6350   60.9080   71.1880 O.2     6  ALA6       -0.2718
      5  CB         7.8040   62.8620   69.1160 C.3     6  ALA6        0.0304
      6  N          6.9200   62.4980   72.6110 N.am    7  TYR7       -0.1962
      7  CA         6.3960   61.5650   73.6070 C.3     7  TYR7        0.1771
      8  C          4.8760   61.4940   73.5880 C.2     7  TYR7        0.2620
      9  O          4.1980   62.4740   73.8840 O.2     7  TYR7       -0.2715
     10  CB         6.8840   62.0030   74.9960 C.3     7  TYR7        0.0574
     11  CG         6.5260   61.0610   76.1190 C.ar    7  TYR7       -0.0198
     12  CD1        7.2030   59.8530   76.2900 C.ar    7  TYR7       -0.0009
     13  CD2        5.5110   61.3800   77.0150 C.ar    7  TYR7       -0.0009
     14  CE1        6.8720   58.9790   77.3400 C.ar    7  TYR7        0.0417
     15  CE2        5.1730   60.5190   78.0630 C.ar    7  TYR7        0.0417
     16  CZ         5.8550   59.3230   78.2230 C.ar    7  TYR7        0.1957
     17  OH         5.5170   58.4820   79.2710 O.3     7  TYR7       -0.2866
     18  N          4.3410   60.3270   73.2550 N.am    8  SER8       -0.1950
     19  CA         2.8970   60.1590   73.1880 C.3     8  SER8        0.1924
     20  C          2.3130   59.6300   74.4940 C.2     8  SER8        0.2314
     21  O          1.0930   59.5820   74.6530 O.2     8  SER8       -0.2863
     22  CB         2.5260   59.2180   72.0460 C.3     8  SER8        0.2116
     23  OG         2.9650   57.9040   72.3310 O.3     8  SER8       -0.2180
     24  N          5.8010   52.2960   74.4470 N.3    12  ASP12      -0.1225
     25  CA         6.9540   52.4690   73.5630 C.3    12  ASP12       0.1805
     26  C          7.7540   53.7450   73.7790 C.2    12  ASP12       0.2598
     27  O          8.9770   53.6890   73.9190 O.2    12  ASP12      -0.2718
     28  CB         6.5260   52.3760   72.0950 C.3    12  ASP12       0.1424
     29  CG         6.0260   50.9970   71.7260 C.2    12  ASP12       0.3668
     30  OD1        6.4650   50.0190   72.3650 O.co2  12  ASP12      -0.2456
     31  OD2        5.2050   50.8800   70.7920 O.co2  12  ASP12      -0.2456
     32  N          7.0940   54.8990   73.8020 N.am   13  THR13      -0.1953
     33  CA         7.8470   56.1270   74.0010 C.3    13  THR13       0.1897
     34  C          8.3540   56.2620   75.4400 C.2    13  THR13       0.2313
     35  O          9.3150   56.9860   75.6920 O.2    13  THR13      -0.2863
     36  CB         7.0370   57.3930   73.5940 C.3    13  THR13       0.1794
     37  OG1        5.8180   57.4700   74.3450 O.3    13  THR13      -0.2208
     38  CG2        6.7200   57.3590   72.0890 C.3    13  THR13       0.0378
     39  N          7.8310   66.0250   74.6110 N.3    31  PHE31      -0.1227
     40  CA         6.8390   66.8560   73.9410 C.3    31  PHE31       0.1736
     41  C          5.6540   66.0040   73.5380 C.2    31  PHE31       0.2596
     42  O          5.7940   65.0030   72.8290 O.2    31  PHE31      -0.2718
     43  CB         7.4000   67.5250   72.6850 C.3    31  PHE31       0.0547
     44  CG         6.3390   68.1990   71.8440 C.ar   31  PHE31      -0.0202
     45  CD1        5.6430   69.3050   72.3310 C.ar   31  PHE31      -0.0042
     46  CD2        5.9980   67.6940   70.5930 C.ar   31  PHE31      -0.0042
     47  CE1        4.6200   69.9000   71.5870 C.ar   31  PHE31      -0.0003
     48  CE2        4.9740   68.2790   69.8370 C.ar   31  PHE31      -0.0003
     49  CZ         4.2830   69.3840   70.3360 C.ar   31  PHE31      -0.0000
     50  N          4.4830   66.3980   74.0090 N.am   32  THR32      -0.1939
     51  CA         3.2690   65.6870   73.6850 C.3    32  THR32       0.2028
     52  C          2.3350   66.7070   73.0750 C.2    32  THR32       0.2642
     53  O          2.1950   67.8200   73.5870 O.2    32  THR32      -0.2714
     54  CB         2.6240   65.0880   74.9360 C.3    32  THR32       0.1808
     55  OG1        3.5790   64.2490   75.5940 O.3    32  THR32      -0.2208
     56  CG2        1.3970   64.2680   74.5680 C.3    32  THR32       0.0379
     57  N          1.7140   66.3380   71.9640 N.am   33  ALA33      -0.1977
     58  CA         0.8050   67.2500   71.3070 C.3    33  ALA33       0.1597
     59  C         -0.6120   66.7430   71.3740 C.2    33  ALA33       0.2287
     60  O         -0.8710   65.5370   71.3020 O.2    33  ALA33      -0.2864
     61  CB         1.2140   67.4440   69.8520 C.3    33  ALA33       0.0319
     62  N         -3.6790   66.5830   69.3570 N.3    35  ILE35      -0.1245
     63  CA        -4.1790   66.7610   67.9990 C.3    35  ILE35       0.1561
     64  C         -5.4920   66.0020   67.8710 C.2    35  ILE35       0.2260
     65  O         -5.8870   65.5910   66.7780 O.2    35  ILE35      -0.2867
     66  CB        -3.1770   66.2370   66.9380 C.3    35  ILE35       0.0252
     67  CG1       -2.8260   64.7750   67.2120 C.3    35  ILE35       0.0019
     68  CG2       -1.9280   67.1010   66.9380 C.3    35  ILE35       0.0019
     69  CD1       -1.9050   64.1430   66.1650 C.3    35  ILE35       0.0001
     70  N         -6.3590   63.0800   69.8110 N.3    37  GLN37      -0.1245
     71  CA        -6.2310   61.6290   69.9840 C.3    37  GLN37       0.1566
     72  C         -7.2800   61.1380   70.9630 C.2    37  GLN37       0.2260
     73  O         -7.5140   59.9360   71.0800 O.2    37  GLN37      -0.2867
     74  CB        -4.8850   61.2230   70.5960 C.3    37  GLN37       0.0367
     75  CG        -3.6700   61.9650   70.1470 C.3    37  GLN37       0.0905
     76  CD        -3.4940   63.3010   70.8320 C.2    37  GLN37       0.2608
     77  OE1       -4.1500   64.2780   70.4790 O.2    37  GLN37      -0.2717
     78  NE2       -2.5930   63.3530   71.8140 N.am   37  GLN37      -0.0878
     79  N         -3.4250   60.4220   59.1750 N.3    88  THR88      -0.1218
     80  CA        -2.1560   60.3860   59.9060 C.3    88  THR88       0.1862
     81  C         -1.0630   61.1870   59.1910 C.2    88  THR88       0.2287
     82  O         -0.2540   61.8720   59.8230 O.2    88  THR88      -0.2866
     83  CB        -1.6640   58.9350   60.0890 C.3    88  THR88       0.1770
     84  OG1       -2.5970   58.2190   60.9020 O.3    88  THR88      -0.2211
     85  CG2       -0.2950   58.9000   60.7450 C.3    88  THR88       0.0375
     86  N          1.8020   64.3300   61.1190 N.3    92  ARG92      -0.1245
     87  CA         3.2210   64.1950   61.4370 C.3    92  ARG92       0.1563
     88  C          4.0920   65.4440   61.2440 C.2    92  ARG92       0.2260
     89  O          4.9310   65.7590   62.0970 O.2    92  ARG92      -0.2867
     90  CB         3.8110   63.0230   60.6570 C.3    92  ARG92       0.0307
     91  CG         3.0320   61.7230   60.8070 C.3    92  ARG92       0.0489
     92  CD         2.6090   61.4410   62.2530 C.3    92  ARG92       0.2205
     93  NE         2.3310   60.0230   62.4670 N.pl3  92  ARG92      -0.0865
     94  CZ         1.7840   59.5050   63.5690 C.cat  92  ARG92       0.5346
     95  NH1        1.4360   60.2910   64.5820 N.pl3  92  ARG92       0.1354
     96  NH2        1.6000   58.1920   63.6630 N.pl3  92  ARG92       0.1354
     97  N          3.7900   67.7680   64.2880 N.3    95  ILE95      -0.1245
     98  CA         4.5520   67.3250   65.4530 C.3    95  ILE95       0.1561
     99  C          6.0340   67.6480   65.2930 C.2    95  ILE95       0.2260
    100  O          6.6390   68.2860   66.1490 O.2    95  ILE95      -0.2867
    101  CB         4.4490   65.8010   65.6790 C.3    95  ILE95       0.0252
    102  CG1        2.9880   65.3730   65.8480 C.3    95  ILE95       0.0019
    103  CG2        5.2900   65.4060   66.8890 C.3    95  ILE95       0.0019
    104  CD1        2.2160   66.1960   66.8330 C.3    95  ILE95       0.0001
    105  N         11.8730   60.1710   67.9420 N.3   113  HIS113     -0.1226
    106  CA        10.5040   59.7420   67.7370 C.3   113  HIS113      0.1752
    107  C         10.4770   58.2260   67.7830 C.2   113  HIS113      0.2597
    108  O         11.5000   57.5720   67.5910 O.2   113  HIS113     -0.2718
    109  CB         9.9780   60.2460   66.3870 C.3   113  HIS113      0.0759
    110  CG        10.6800   59.6510   65.2080 C.ar  113  HIS113      0.0818
    111  ND1       10.4720   58.3510   64.8000 N.ar  113  HIS113     -0.2268
    112  CD2       11.6350   60.1550   64.3930 C.ar  113  HIS113      0.1154
    113  CE1       11.2740   58.0800   63.7870 C.ar  113  HIS113      0.1986
    114  NE2       11.9900   59.1570   63.5210 N.ar  113  HIS113     -0.2212
    115  N          9.3030   57.6670   68.0390 N.am  114  GLY114     -0.1942
    116  CA         9.1870   56.2280   68.1020 C.3   114  GLY114      0.2014
    117  C          8.5050   55.5960   66.9070 C.2   114  GLY114      0.2639
    118  O          7.8070   54.5970   67.0570 O.2   114  GLY114     -0.2714
    119  N          8.6790   56.1780   65.7230 N.am  115  ALA115     -0.1963
    120  CA         8.0960   55.6020   64.5110 C.3   115  ALA115      0.1728
    121  C          9.0400   54.4630   64.1450 C.2   115  ALA115      0.2616
    122  O         10.2490   54.6180   64.2800 O.2   115  ALA115     -0.2715
    123  CB         8.0630   56.6460   63.3900 C.3   115  ALA115      0.0334
    124  N          8.5080   53.3290   63.6930 N.am  116  THR116     -0.1951
    125  CA         9.3680   52.1930   63.3380 C.3   116  THR116      0.1897
    126  C         10.1010   52.3860   62.0090 C.2   116  THR116      0.2313
    127  O          9.8110   53.3050   61.2460 O.2   116  THR116     -0.2863
    128  CB         8.5840   50.8640   63.2410 C.3   116  THR116      0.1794
    129  OG1        7.9140   50.7970   61.9800 O.3   116  THR116     -0.2208
    130  CG2        7.5550   50.7530   64.3560 C.3   116  THR116      0.0378
    131  N          5.7470   57.0510   58.7650 N.3   121  ASP121     -0.1239
    132  CA         5.9160   58.1320   59.7340 C.3   121  ASP121      0.1674
    133  C          7.3520   58.5690   59.9920 C.2   121  ASP121      0.2266
    134  O          7.6130   59.7550   60.1860 O.2   121  ASP121     -0.2867
    135  CB         5.1990   57.7940   61.0490 C.3   121  ASP121      0.1410
    136  CG         3.6780   57.8130   60.9010 C.2   121  ASP121      0.3668
    137  OD1        3.1650   58.6820   60.1620 O.co2 121  ASP121     -0.2456
    138  OD2        2.9960   56.9760   61.5290 O.co2 121  ASP121     -0.2456
    139  N          8.3770   62.4120   59.7080 N.3   125  PHE125     -0.1241
    140  CA         9.0160   63.1160   60.8200 C.3   125  PHE125      0.1605
    141  C         10.3770   63.7070   60.4400 C.2   125  PHE125      0.2264
    142  O         10.6520   64.8850   60.6720 O.2   125  PHE125     -0.2867
    143  CB         9.2060   62.1610   62.0070 C.3   125  PHE125      0.0534
    144  CG         7.9440   61.8830   62.7880 C.ar  125  PHE125     -0.0203
    145  CD1        7.7580   60.6510   63.4060 C.ar  125  PHE125     -0.0042
    146  CD2        6.9680   62.8590   62.9460 C.ar  125  PHE125     -0.0042
    147  CE1        6.6170   60.3920   64.1750 C.ar  125  PHE125     -0.0003
    148  CE2        5.8240   62.6100   63.7140 C.ar  125  PHE125     -0.0003
    149  CZ         5.6530   61.3750   64.3260 C.ar  125  PHE125     -0.0000
    150  N         -2.9430   47.6950   65.1850 N.3   168  SER168     -0.1202
    151  CA        -2.3520   48.9770   65.5350 C.3   168  SER168      0.2020
    152  C         -3.3190   50.1050   65.1800 C.2   168  SER168      0.2619
    153  O         -4.0880   49.9900   64.2240 O.2   168  SER168     -0.2717
    154  CB        -1.0300   49.1420   64.7730 C.3   168  SER168      0.2103
    155  OG        -0.5350   50.4610   64.8700 O.3   168  SER168     -0.2182
    156  N         -3.2770   51.1950   65.9380 N.am  169  MET169     -0.1965
    157  CA        -4.1680   52.3190   65.6970 C.3   169  MET169      0.1736
    158  C         -3.4980   53.6710   65.8450 C.2   169  MET169      0.2616
    159  O         -2.5000   53.8120   66.5560 O.2   169  MET169     -0.2715
    160  CB        -5.3470   52.2950   66.6770 C.3   169  MET169      0.0427
    161  CG        -6.2710   51.1050   66.5780 C.3   169  MET169      0.0599
    162  SD        -7.4590   51.0580   67.9680 S.3   169  MET169     -0.1393
    163  CE        -7.9220   52.8100   68.1160 C.3   169  MET169      0.0692
    164  N         -4.0550   54.6570   65.1420 N.am  170  ASP170     -0.1971
    165  CA        -3.6150   56.0420   65.2400 C.3   170  ASP170      0.1709
    166  C         -4.8840   56.8700   65.1530 C.2   170  ASP170      0.2293
    167  O         -5.7310   56.6410   64.2790 O.2   170  ASP170     -0.2864
    168  CB        -2.6720   56.4810   64.1180 C.3   170  ASP170      0.1436
    169  CG        -2.0870   57.8620   64.3900 C.2   170  ASP170      0.3671
    170  OD1       -1.7620   58.6230   63.4510 O.co2 170  ASP170     -0.2456
    171  OD2       -1.9550   58.1910   65.5860 O.co2 170  ASP170     -0.2456
    172  N         -4.4950   49.1970   61.3590 N.3   179  GLU179     -0.1245
    173  CA        -3.7090   48.3290   60.4890 C.3   179  GLU179      0.1567
    174  C         -2.8420   47.3770   61.3110 C.2   179  GLU179      0.2260
    175  O         -2.5750   47.6240   62.4860 O.2   179  GLU179     -0.2867
    176  CB        -2.8190   49.1590   59.5570 C.3   179  GLU179      0.0388
    177  CG        -1.6910   49.9060   60.2370 C.3   179  GLU179      0.1160
    178  CD        -1.0520   50.9480   59.3200 C.2   179  GLU179      0.3649
    179  OE1        0.1670   51.1830   59.4340 O.co2 179  GLU179     -0.2457
    180  OE2       -1.7780   51.5420   58.4920 O.co2 179  GLU179     -0.2457
@<TRIPOS>BOND
     1   180   178   ar
     2   131   132    1
     3    79    80    1
     4    81    82    2
     5    81    80    1
     6   178   179   ar
     7   178   177    1
     8   176   177    1
     9   176   173    1
    10   139   140    1
    11   132   133    1
    12   132   135    1
    13    80    83    1
    14   133   134    2
    15    83    85    1
    16    83    84    1
    17   137   136   ar
    18   141   142    2
    19   141   140    1
    20   173   174    1
    21   173   172    1
    22    90    91    1
    23    90    87    1
    24    91    92    1
    25   140   143    1
    26   136   135    1
    27   136   138   ar
    28    86    87    1
    29    88    87    1
    30    88    89    2
    31   127   126    2
    32   174   175    2
    33   129   128    1
    34   143   144    1
    35   126   125    1
    36    92    93    1
    37    93    94    2
    38   144   146   ar
    39   144   145   ar
    40   146   148   ar
    41   128   125    1
    42   128   130    1
    43   125   124    1
    44   123   120    1
    45   145   147   ar
    46   170   169   ar
    47   114   113   ar
    48   114   112   ar
    49    94    96    1
    50    94    95    1
    51   124   121   am
    52   148   149   ar
    53   113   111   ar
    54   168   169    1
    55   168   165    1
    56   121   122    2
    57   121   120    1
    58   147   149   ar
    59   153   152    2
    60   167   166    2
    61    97    98    1
    62   169   171   ar
    63   112   110   ar
    64   120   119    1
    65   154   155    1
    66   154   151    1
    67   111   110   ar
    68   164   165    1
    69   164   158   am
    70   166   165    1
    71   152   151    1
    72   152   156   am
    73   150   151    1
    74   110   109    1
    75    99    98    1
    76    99   100    2
    77    98   101    1
    78   101   102    1
    79   101   103    1
    80   157   158    1
    81   157   156    1
    82   157   160    1
    83   119   117   am
    84   158   159    2
    85   102   104    1
    86    69    67    1
    87   109   106    1
    88   161   160    1
    89   161   162    1
    90    65    64    2
    91   117   118    2
    92   117   116    1
    93    66    68    1
    94    66    67    1
    95    66    63    1
    96   108   107    2
    97   106   107    1
    98   106   105    1
    99   107   115   am
   100    64    63    1
   101   162   163    1
   102    63    62    1
   103   115   116    1
   104     5     2    1
   105    70    71    1
   106    48    49   ar
   107    48    46   ar
   108    61    58    1
   109    71    74    1
   110    71    72    1
   111    75    74    1
   112    75    76    1
   113    49    47   ar
   114    77    76    2
   115     2     1    1
   116     2     3    1
   117    46    44   ar
   118    31    29   ar
   119    76    78   am
   120    72    73    2
   121     4     3    2
   122    60    59    2
   123    58    59    1
   124    58    57    1
   125     3     6   am
   126    47    45   ar
   127    29    28    1
   128    29    30   ar
   129    44    45   ar
   130    44    43    1
   131    57    52   am
   132    22    23    1
   133    22    19    1
   134    38    36    1
   135    28    25    1
   136     6     7    1
   137    43    40    1
   138    42    41    2
   139    52    53    2
   140    52    51    1
   141    19    18    1
   142    19    20    1
   143    18     8   am
   144    41    40    1
   145    41    50   am
   146    25    26    1
   147    25    24    1
   148     8     7    1
   149     8     9    2
   150    36    33    1
   151    36    37    1
   152     7    10    1
   153    51    50    1
   154    51    54    1
   155    26    32   am
   156    26    27    2
   157    32    33    1
   158    40    39    1
   159    33    34    1
   160    20    21    2
   161    56    54    1
   162    54    55    1
   163    10    11    1
   164    34    35    2
   165    11    12   ar
   166    11    13   ar
   167    12    14   ar
   168    13    15   ar
   169    14    16   ar
   170    15    16   ar
   171    16    17    1
