@<TRIPOS>MOLECULE
tmp/1khbA00.pdb
 229 228 0 0 0
SMALL
GASTEIGER

@<TRIPOS>ATOM
      1  N         42.3590   19.0510   33.6820 N.3   235  LYS235     -0.1245
      2  CA        43.2290   19.4090   32.5680 C.3   235  LYS235      0.1561
      3  C         43.8780   18.1460   31.9580 C.2   235  LYS235      0.2260
      4  O         44.0040   18.0230   30.7430 O.2   235  LYS235     -0.2867
      5  CB        44.4010   20.3720   32.9800 C.3   235  LYS235      0.0271
      6  CG        43.9010   21.6890   33.5200 C.3   235  LYS235      0.0035
      7  CD        43.1070   22.4610   32.5140 C.3   235  LYS235      0.0206
      8  CE        42.4950   23.6650   33.2560 C.3   235  LYS235      0.1093
      9  NZ        42.2740   24.7680   32.3820 N.3   235  LYS235     -0.1314
     10  N         39.4370   24.0860   25.6370 N.3   255  HIS255     -0.1241
     11  CA        39.5680   24.9400   26.8430 C.3   255  HIS255      0.1621
     12  C         38.5730   26.0730   26.6470 C.2   255  HIS255      0.2264
     13  O         38.9360   27.2670   26.4720 O.2   255  HIS255     -0.2867
     14  CB        41.0140   25.4960   26.9150 C.3   255  HIS255      0.0745
     15  CG        41.3400   26.1790   28.1950 C.ar  255  HIS255      0.0817
     16  ND1       42.4280   27.0310   28.3110 N.ar  255  HIS255     -0.2268
     17  CD2       40.7840   26.0880   29.4320 C.ar  255  HIS255      0.1154
     18  CE1       42.4950   27.4710   29.5650 C.ar  255  HIS255      0.1986
     19  NE2       41.5230   26.9040   30.2670 N.ar  255  HIS255     -0.2212
     20  N         42.7980   32.3750   27.3770 N.3   276  PRO276     -0.2102
     21  CA        43.8430   31.7990   28.2510 C.3   276  PRO276      0.1504
     22  C         43.6270   32.1170   29.7300 C.2   276  PRO276      0.2576
     23  O         42.7260   32.8620   30.0690 O.2   276  PRO276     -0.2718
     24  CB        45.1060   32.5110   27.8010 C.3   276  PRO276      0.0282
     25  CG        44.8350   32.9800   26.4560 C.3   276  PRO276      0.0208
     26  CD        43.3270   33.3410   26.4010 C.3   276  PRO276      0.0893
     27  N         44.5070   31.5850   30.5840 N.am  277  SER277     -0.1938
     28  CA        44.5580   31.9240   32.0210 C.3   277  SER277      0.2055
     29  C         44.5110   33.4370   32.2120 C.2   277  SER277      0.2643
     30  O         44.9720   34.1630   31.3880 O.2   277  SER277     -0.2714
     31  CB        45.9080   31.4660   32.6140 C.3   277  SER277      0.2130
     32  OG        46.4030   32.4210   33.5650 O.3   277  SER277     -0.2179
     33  N         43.9130   33.8800   33.3030 N.am  278  ALA278     -0.1963
     34  CA        43.7630   35.3070   33.5950 C.3   278  ALA278      0.1728
     35  C         43.0020   36.1380   32.5930 C.2   278  ALA278      0.2616
     36  O         43.0750   37.3830   32.6420 O.2   278  ALA278     -0.2715
     37  CB        45.1270   35.9260   33.8470 C.3   278  ALA278      0.0334
     38  N         42.2820   35.5290   31.6400 N.am  279  CYS279     -0.1954
     39  CA        41.6260   36.3720   30.6400 C.3   279  CYS279      0.1843
     40  C         40.0920   36.4580   30.7120 C.2   279  CYS279      0.2626
     41  O         39.4590   37.0610   29.8270 O.2   279  CYS279     -0.2714
     42  CB        42.0420   35.9590   29.2310 C.3   279  CYS279      0.0997
     43  SG        43.8190   36.3420   29.0720 S.3   279  CYS279     -0.0797
     44  N         39.4910   35.8440   31.7570 N.am  280  GLY280     -0.1940
     45  CA        38.0890   36.1320   31.9630 C.3   280  GLY280      0.2014
     46  C         37.0320   35.0970   31.6110 C.2   280  GLY280      0.2639
     47  O         35.8660   35.4860   31.4670 O.2   280  GLY280     -0.2714
     48  N         37.3830   33.8100   31.4780 N.am  281  LYS281     -0.1963
     49  CA        36.3600   32.8280   31.1330 C.3   281  LYS281      0.1728
     50  C         35.2510   32.7700   32.2000 C.2   281  LYS281      0.2617
     51  O         34.0750   32.7810   31.9230 O.2   281  LYS281     -0.2715
     52  CB        36.9670   31.4190   30.9790 C.3   281  LYS281      0.0311
     53  CG        37.6730   31.1440   29.5450 C.3   281  LYS281      0.0038
     54  CD        38.2530   29.7060   29.4130 C.3   281  LYS281      0.0206
     55  CE        39.1310   29.3520   30.6660 C.3   281  LYS281      0.1093
     56  NZ        40.3230   30.2040   30.8390 N.3   281  LYS281     -0.1314
     57  N         35.6350   32.6830   33.4540 N.am  282  THR282     -0.1937
     58  CA        34.6210   32.5010   34.4760 C.3   282  THR282      0.2028
     59  C         33.7220   33.7270   34.5570 C.2   282  THR282      0.2642
     60  O         32.5110   33.6160   34.6860 O.2   282  THR282     -0.2714
     61  CB        35.3440   32.1090   35.8090 C.3   282  THR282      0.1808
     62  OG1       35.9420   30.7970   35.6020 O.3   282  THR282     -0.2208
     63  CG2       34.2070   31.8860   36.9270 C.3   282  THR282      0.0379
     64  N         34.3040   34.9040   34.3860 N.am  283  ASN283     -0.1971
     65  CA        33.5120   36.1190   34.4250 C.3   283  ASN283      0.1688
     66  C         32.4650   36.1500   33.3100 C.2   283  ASN283      0.2292
     67  O         31.3440   36.6660   33.4780 O.2   283  ASN283     -0.2864
     68  CB        34.3910   37.3420   34.2360 C.3   283  ASN283      0.1181
     69  CG        35.0230   37.7740   35.4720 C.2   283  ASN283      0.2629
     70  OD1       34.5190   38.6590   36.1530 O.2   283  ASN283     -0.2716
     71  ND2       36.2140   37.2020   35.7540 N.am  283  ASN283     -0.0877
     72  N         32.4620   26.5760   32.6520 N.3   301  ASP301     -0.1225
     73  CA        33.3650   27.7060   32.6010 C.3   301  ASP301      0.1805
     74  C         34.7970   27.3760   32.1840 C.2   301  ASP301      0.2597
     75  O         35.6400   28.2700   32.1810 O.2   301  ASP301     -0.2718
     76  CB        33.3990   28.4320   33.9590 C.3   301  ASP301      0.1424
     77  CG        34.3400   27.7670   34.9800 C.2   301  ASP301      0.3668
     78  OD1       34.5870   26.5280   34.9190 O.co2 301  ASP301     -0.2456
     79  OD2       34.8270   28.4470   35.9460 O.co2 301  ASP301     -0.2456
     80  N         35.1160   26.1450   31.8010 N.am  302  ASP302     -0.1974
     81  CA        36.5410   25.8230   31.6010 C.3   302  ASP302      0.1709
     82  C         36.8050   24.8770   30.4660 C.2   302  ASP302      0.2293
     83  O         37.7080   25.1020   29.6460 O.2   302  ASP302     -0.2864
     84  CB        37.1060   25.2150   32.8940 C.3   302  ASP302      0.1436
     85  CG        38.6230   25.3010   32.9700 C.2   302  ASP302      0.3671
     86  OD1       39.1340   26.4470   32.7960 O.co2 302  ASP302     -0.2456
     87  OD2       39.3790   24.3170   33.1710 O.co2 302  ASP302     -0.2456
     88  N         36.4270   25.4970   39.2740 N.3   324  PHE324     -0.1227
     89  CA        37.7200   25.6110   40.0060 C.3   324  PHE324      0.1736
     90  C         38.2260   26.9770   39.5710 C.2   324  PHE324      0.2596
     91  O         38.9990   27.0880   38.6290 O.2   324  PHE324     -0.2718
     92  CB        38.6810   24.5170   39.5520 C.3   324  PHE324      0.0547
     93  CG        39.9510   24.3840   40.3670 C.ar  324  PHE324     -0.0202
     94  CD1       39.9200   23.9200   41.6910 C.ar  324  PHE324     -0.0042
     95  CD2       41.1700   24.6760   39.7970 C.ar  324  PHE324     -0.0042
     96  CE1       41.0520   23.7900   42.3800 C.ar  324  PHE324     -0.0003
     97  CE2       42.3370   24.5720   40.5350 C.ar  324  PHE324     -0.0003
     98  CZ        42.2370   24.1040   41.8420 C.ar  324  PHE324     -0.0000
     99  N         37.7550   28.0000   40.2520 N.am  325  GLY325     -0.1942
    100  CA        37.9160   29.3950   39.8060 C.3   325  GLY325      0.2014
    101  C         38.9760   30.1790   40.5610 C.2   325  GLY325      0.2638
    102  O         39.2710   29.8920   41.7380 O.2   325  GLY325     -0.2714
    103  N         39.6140   31.1030   39.8490 N.am  326  VAL326     -0.1977
    104  CA        40.6260   32.0100   40.4120 C.3   326  VAL326      0.1596
    105  C         39.8620   32.9100   41.3460 C.2   326  VAL326      0.2287
    106  O         38.8310   33.4510   40.9660 O.2   326  VAL326     -0.2864
    107  CB        41.2540   32.8790   39.3120 C.3   326  VAL326      0.0276
    108  CG1       42.0780   33.9810   39.9320 C.3   326  VAL326      0.0022
    109  CG2       42.1330   31.9850   38.3610 C.3   326  VAL326      0.0022
    110  N         41.0940   35.6720   43.4330 N.3   328  PRO328     -0.2102
    111  CA        41.3730   37.1310   43.4500 C.3   328  PRO328      0.1504
    112  C         40.7250   37.8150   42.2510 C.2   328  PRO328      0.2576
    113  O         40.6660   37.2180   41.1660 O.2   328  PRO328     -0.2718
    114  CB        42.9120   37.2280   43.3850 C.3   328  PRO328      0.0282
    115  CG        43.3900   35.9040   43.9630 C.3   328  PRO328      0.0208
    116  CD        42.3320   34.8780   43.4870 C.3   328  PRO328      0.0893
    117  N         40.2130   39.0210   42.4670 N.am  329  GLY329     -0.1957
    118  CA        39.4160   39.7320   41.4580 C.3   329  GLY329      0.1869
    119  C         37.9230   39.4360   41.4760 C.2   329  GLY329      0.2309
    120  O         37.1010   40.1640   40.8700 O.2   329  GLY329     -0.2863
    121  N         32.2200   42.4800   40.0410 N.3   334  THR334     -0.1218
    122  CA        32.7540   41.8370   38.8400 C.3   334  THR334      0.1862
    123  C         32.1410   40.5030   38.4880 C.2   334  THR334      0.2287
    124  O         32.1530   40.1330   37.3250 O.2   334  THR334     -0.2866
    125  CB        34.2550   41.6110   38.8930 C.3   334  THR334      0.1770
    126  OG1       34.5620   40.7970   40.0410 O.3   334  THR334     -0.2211
    127  CG2       35.0220   42.9760   39.1000 C.3   334  THR334      0.0375
    128  N         42.3160   29.6880   44.6420 N.3   396  ARG396     -0.1245
    129  CA        41.1620   29.2190   43.9220 C.3   396  ARG396      0.1563
    130  C         40.0380   28.9220   44.8660 C.2   396  ARG396      0.2260
    131  O         40.2540   28.7640   46.0840 O.2   396  ARG396     -0.2867
    132  CB        41.5200   27.8130   43.4030 C.3   396  ARG396      0.0307
    133  CG        42.6000   27.8190   42.3320 C.3   396  ARG396      0.0489
    134  CD        42.0020   28.0980   40.9350 C.3   396  ARG396      0.2205
    135  NE        43.0780   28.3630   39.9590 N.pl3 396  ARG396     -0.0865
    136  CZ        42.8310   28.5460   38.6510 C.cat 396  ARG396      0.5346
    137  NH1       41.5590   28.3780   38.1790 N.pl3 396  ARG396      0.1354
    138  NH2       43.8340   28.8660   37.8150 N.pl3 396  ARG396      0.1354
    139  N         44.4630   38.9750   26.3190 N.3   427  ARG427     -0.1245
    140  CA        44.7900   40.3230   26.7790 C.3   427  ARG427      0.1563
    141  C         45.7000   41.0310   25.8040 C.2   427  ARG427      0.2260
    142  O         46.8870   40.6730   25.6980 O.2   427  ARG427     -0.2867
    143  CB        45.4910   40.2900   28.1510 C.3   427  ARG427      0.0307
    144  CG        44.5680   39.9940   29.3430 C.3   427  ARG427      0.0489
    145  CD        45.3650   39.6860   30.6600 C.3   427  ARG427      0.2205
    146  NE        44.4530   39.4730   31.7920 N.pl3 427  ARG427     -0.0865
    147  CZ        43.9490   40.4160   32.5920 C.cat 427  ARG427      0.5346
    148  NH1       44.2650   41.6900   32.4290 N.pl3 427  ARG427      0.1354
    149  NH2       43.0980   40.0790   33.5650 N.pl3 427  ARG427      0.1354
    150  N         38.9090   42.3730   25.6190 N.3   499  TRP499     -0.1227
    151  CA        38.3110   43.2690   26.6120 C.3   499  TRP499      0.1737
    152  C         39.4010   44.2230   27.1440 C.2   499  TRP499      0.2595
    153  O         39.1150   45.1110   27.9160 O.2   499  TRP499     -0.2718
    154  CB        37.8490   42.4700   27.8610 C.3   499  TRP499      0.0564
    155  CG        36.9550   41.2290   27.6330 C.ar  499  TRP499      0.0003
    156  CD1       36.8870   40.1170   28.4530 C.ar  499  TRP499      0.0946
    157  CD2       35.9020   41.0560   26.6580 C.ar  499  TRP499      0.0152
    158  NE1       35.9250   39.2510   28.0030 N.ar  499  TRP499     -0.2442
    159  CE2       35.2980   39.7870   26.9120 C.ar  499  TRP499      0.0810
    160  CE3       35.4320   41.8160   25.5940 C.ar  499  TRP499      0.0012
    161  CZ2       34.2630   39.2620   26.1380 C.ar  499  TRP499      0.0191
    162  CZ3       34.3530   41.2950   24.8160 C.ar  499  TRP499      0.0001
    163  CH2       33.8010   40.0150   25.0970 C.ar  499  TRP499      0.0015
    164  N         40.6260   44.0370   26.7080 N.am  500  PHE500     -0.1976
    165  CA        41.7120   44.6420   27.4880 C.3   500  PHE500      0.1639
    166  C         42.5110   45.7380   26.7730 C.2   500  PHE500      0.2290
    167  O         43.6330   46.1090   27.2090 O.2   500  PHE500     -0.2864
    168  CB        42.6430   43.5190   27.9960 C.3   500  PHE500      0.0560
    169  CG        41.9490   42.4980   28.8490 C.ar  500  PHE500     -0.0200
    170  CD1       41.4330   41.3190   28.2860 C.ar  500  PHE500     -0.0042
    171  CD2       41.7910   42.7050   30.2160 C.ar  500  PHE500     -0.0042
    172  CE1       40.7830   40.3830   29.0810 C.ar  500  PHE500     -0.0003
    173  CE2       41.1290   41.7510   31.0490 C.ar  500  PHE500     -0.0003
    174  CZ        40.6090   40.5970   30.4610 C.ar  500  PHE500     -0.0000
    175  N         41.8680   51.0240   30.6900 N.3   508  PHE508     -0.1241
    176  CA        41.0580   50.2670   29.7300 C.3   508  PHE508      0.1605
    177  C         40.1500   51.1520   28.9260 C.2   508  PHE508      0.2264
    178  O         39.5070   52.0470   29.4800 O.2   508  PHE508     -0.2867
    179  CB        40.2440   49.2170   30.5000 C.3   508  PHE508      0.0534
    180  CG        41.0850   48.1350   31.0520 C.ar  508  PHE508     -0.0203
    181  CD1       41.0470   47.8270   32.4110 C.ar  508  PHE508     -0.0042
    182  CD2       41.9430   47.4490   30.2260 C.ar  508  PHE508     -0.0042
    183  CE1       41.8570   46.8520   32.9290 C.ar  508  PHE508     -0.0003
    184  CE2       42.7530   46.4650   30.7230 C.ar  508  PHE508     -0.0003
    185  CZ        42.7010   46.1520   32.0780 C.ar  508  PHE508     -0.0000
    186  N         37.5100   49.8870   27.4300 N.3   510  TRP510     -0.1228
    187  CA        36.1840   49.2810   27.5510 C.3   510  TRP510      0.1722
    188  C         35.9600   48.8270   28.9660 C.2   510  TRP510      0.2437
    189  O         36.7990   48.1350   29.5450 O.2   510  TRP510     -0.2733
    190  CB        36.1080   48.0770   26.5850 C.3   510  TRP510      0.0563
    191  CG        34.7750   47.3690   26.5270 C.ar  510  TRP510      0.0003
    192  CD1       34.5060   46.1280   27.0300 C.ar  510  TRP510      0.0946
    193  CD2       33.5910   47.8150   25.8890 C.ar  510  TRP510      0.0152
    194  NE1       33.2110   45.7790   26.7420 N.ar  510  TRP510     -0.2442
    195  CE2       32.6180   46.8100   26.0610 C.ar  510  TRP510      0.0810
    196  CE3       33.2230   48.9980   25.2200 C.ar  510  TRP510      0.0012
    197  CZ2       31.3310   46.9250   25.5620 C.ar  510  TRP510      0.0191
    198  CZ3       31.9660   49.0930   24.6790 C.ar  510  TRP510      0.0001
    199  CH2       31.0120   48.0730   24.8610 C.ar  510  TRP510      0.0015
    200  N         34.7970   49.1540   29.5170 N.am  511  PRO511     -0.2718
    201  CA        34.4690   48.8150   30.9180 C.3   511  PRO511      0.1535
    202  C         34.3610   47.2760   31.1830 C.2   511  PRO511      0.2599
    203  O         34.6570   46.7820   32.2840 O.2   511  PRO511     -0.2715
    204  CB        33.1380   49.5750   31.1580 C.3   511  PRO511      0.0310
    205  CG        32.6090   49.7700   29.9000 C.3   511  PRO511      0.0237
    206  CD        33.7060   49.8560   28.8280 C.3   511  PRO511      0.0939
    207  N         33.9430   46.5040   30.1960 N.am  512  GLY512     -0.1941
    208  CA        33.9910   45.0480   30.3870 C.3   512  GLY512      0.2014
    209  C         32.9640   44.4610   31.3690 C.2   512  GLY512      0.2638
    210  O         31.9750   45.1320   31.6870 O.2   512  GLY512     -0.2714
    211  N         33.2460   43.2410   31.8630 N.am  513  PHE513     -0.1973
    212  CA        32.3700   42.5250   32.7680 C.3   513  PHE513      0.1639
    213  C         30.9620   42.4640   32.1890 C.2   513  PHE513      0.2290
    214  O         30.7880   42.0950   31.0240 O.2   513  PHE513     -0.2864
    215  CB        32.4460   43.1710   34.1820 C.3   513  PHE513      0.0560
    216  CG        33.8660   43.2090   34.6910 C.ar  513  PHE513     -0.0200
    217  CD1       34.5970   44.3810   34.6920 C.ar  513  PHE513     -0.0042
    218  CD2       34.4930   42.0370   35.0960 C.ar  513  PHE513     -0.0042
    219  CE1       35.9150   44.3870   35.1260 C.ar  513  PHE513     -0.0003
    220  CE2       35.7980   42.0410   35.4900 C.ar  513  PHE513     -0.0003
    221  CZ        36.5040   43.2430   35.5040 C.ar  513  PHE513     -0.0000
    222  N         30.1220   43.4880   28.6890 N.3   516  ASN516     -0.1240
    223  CA        30.4240   42.6180   27.5380 C.3   516  ASN516      0.1653
    224  C         29.1650   42.0410   26.9020 C.2   516  ASN516      0.2266
    225  O         29.2190   41.5070   25.8190 O.2   516  ASN516     -0.2867
    226  CB        31.4250   41.5300   27.9070 C.3   516  ASN516      0.1155
    227  CG        32.8300   42.1110   28.2200 C.2   516  ASN516      0.2627
    228  OD1       33.1970   43.1940   27.6940 O.2   516  ASN516     -0.2716
    229  ND2       33.6070   41.4050   29.0860 N.am  516  ASN516     -0.0877
@<TRIPOS>BOND
     1   198   199   ar
     2   198   196   ar
     3   162   163   ar
     4   162   160   ar
     5   199   197   ar
     6   163   161   ar
     7   196   193   ar
     8   197   195   ar
     9   160   157   ar
    10   150   151    1
    11    10    11    1
    12   142   141    2
    13   141   140    1
    14   225   224    2
    15   193   195   ar
    16   193   191   ar
    17   195   194   ar
    18   161   159   ar
    19   139   140    1
    20    26    25    1
    21    26    20    1
    22    25    24    1
    23    13    12    2
    24   191   190    1
    25   191   192   ar
    26   190   187    1
    27   151   152    1
    28   151   154    1
    29    12    11    1
    30   157   159   ar
    31   157   155   ar
    32   164   152   am
    33   164   165    1
    34   194   192   ar
    35   166   167    2
    36   166   165    1
    37   140   143    1
    38    11    14    1
    39   224   223    1
    40   159   158   ar
    41    14    15    1
    42   152   153    2
    43    20    21    1
    44   186   187    1
    45   165   168    1
    46   223   226    1
    47   223   222    1
    48   187   188    1
    49   155   154    1
    50   155   156   ar
    51   228   227    2
    52    24    21    1
    53   226   227    1
    54   168   169    1
    55   158   156   ar
    56   143   144    1
    57    15    16   ar
    58    15    17   ar
    59   227   229   am
    60    21    22    1
    61   170   169   ar
    62   170   172   ar
    63    16    18   ar
    64   206   200    1
    65   206   205    1
    66   169   171   ar
    67   177   178    2
    68   177   176    1
    69   188   200   am
    70   188   189    2
    71    43    42    1
    72   172   174   ar
    73    42    39    1
    74   144   145    1
    75    54    53    1
    76    54    55    1
    77    17    19   ar
    78   200   201    1
    79    53    52    1
    80    18    19   ar
    81    83    82    2
    82   176   179    1
    83   176   175    1
    84    22    23    2
    85    22    27   am
    86    41    40    2
    87   205   204    1
    88   207   208    1
    89   207   202   am
    90   171   173   ar
    91   182   184   ar
    92   182   180   ar
    93   208   209    1
    94   174   173   ar
    95    82    81    1
    96   179   180    1
    97    27    28    1
    98    39    40    1
    99    39    38    1
   100   145   146    1
   101    55    56    1
   102    40    44   am
   103   184   185   ar
   104     4     3    2
   105   201   204    1
   106   201   202    1
   107    52    49    1
   108   214   213    2
   109   180   181   ar
   110    49    48    1
   111    49    50    1
   112   202   203    2
   113   209   210    2
   114   209   211   am
   115    30    29    2
   116    47    46    2
   117    48    46   am
   118    81    80    1
   119    81    84    1
   120    46    45    1
   121    38    35   am
   122    44    45    1
   123   146   147    2
   124    80    74   am
   125   211   212    1
   126    51    50    2
   127     3     2    1
   128    28    29    1
   129    28    31    1
   130   185   183   ar
   131    75    74    2
   132    74    73    1
   133   213   212    1
   134    50    57   am
   135    29    33   am
   136     9     8    1
   137   181   183   ar
   138   148   147    1
   139     7     8    1
   140     7     6    1
   141     2     5    1
   142     2     1    1
   143   147   149    1
   144    35    36    2
   145    35    34    1
   146    73    72    1
   147    73    76    1
   148    31    32    1
   149   212   215    1
   150    86    85   ar
   151    84    85    1
   152    85    87   ar
   153     5     6    1
   154    33    34    1
   155    66    67    2
   156    66    65    1
   157    57    58    1
   158    34    37    1
   159    76    77    1
   160   215   216    1
   161    68    65    1
   162    68    69    1
   163    64    65    1
   164    64    59   am
   165    58    59    1
   166    58    61    1
   167    59    60    2
   168   216   217   ar
   169   216   218   ar
   170   217   219   ar
   171    78    77   ar
   172    77    79   ar
   173   218   220   ar
   174   219   221   ar
   175    69    71   am
   176    69    70    2
   177   220   221   ar
   178    62    61    1
   179    61    63    1
   180   124   123    2
   181   138   136    1
   182   137   136    1
   183   109   107    1
   184   123   122    1
   185    91    90    2
   186   136   135    2
   187   122   125    1
   188   122   121    1
   189   125   127    1
   190   125   126    1
   191    88    89    1
   192   107   108    1
   193   107   104    1
   194    92    89    1
   195    92    93    1
   196    90    89    1
   197    90    99   am
   198    95    93   ar
   199    95    97   ar
   200   100    99    1
   201   100   101    1
   202   103   104    1
   203   103   101   am
   204   135   134    1
   205    93    94   ar
   206   104   105    1
   207    97    98   ar
   208   101   102    2
   209   120   119    2
   210   134   133    1
   211   106   105    2
   212   113   112    2
   213   118   119    1
   214   118   117    1
   215    94    96   ar
   216    98    96   ar
   217   112   117   am
   218   112   111    1
   219   133   132    1
   220   114   111    1
   221   114   115    1
   222   132   129    1
   223   110   111    1
   224   110   116    1
   225   116   115    1
   226   129   128    1
   227   129   130    1
   228   130   131    2
