@<TRIPOS>MOLECULE
tmp/1kheA00.pdb
 233 230 0 0 0
SMALL
GASTEIGER

@<TRIPOS>ATOM
      1  N         42.4890   19.0320   34.0010 N.3   227  LYS227     -0.1245
      2  CA        43.3050   19.3300   32.8160 C.3   227  LYS227      0.1561
      3  C         43.9520   18.1150   32.1520 C.2   227  LYS227      0.2260
      4  O         43.9620   18.0210   30.9280 O.2   227  LYS227     -0.2867
      5  CB        44.4850   20.3620   33.1170 C.3   227  LYS227      0.0271
      6  CG        43.9960   21.7470   33.6560 C.3   227  LYS227      0.0035
      7  CD        43.3610   22.6510   32.6340 C.3   227  LYS227      0.0206
      8  CE        42.9470   23.9590   33.3010 C.3   227  LYS227      0.1093
      9  NZ        42.1870   24.7410   32.2980 N.3   227  LYS227     -0.1314
     10  N         39.6960   24.2280   25.8310 N.3   246  HIS246     -0.1241
     11  CA        39.7460   25.1190   26.9980 C.3   246  HIS246      0.1621
     12  C         38.6410   26.1870   26.8520 C.2   246  HIS246      0.2264
     13  O         38.9190   27.3980   26.6710 O.2   246  HIS246     -0.2867
     14  CB        41.1320   25.7420   27.0400 C.3   246  HIS246      0.0745
     15  CG        41.4930   26.4060   28.3340 C.ar  246  HIS246      0.0817
     16  ND1       42.5940   27.2290   28.4220 N.ar  246  HIS246     -0.2268
     17  CD2       40.9230   26.4030   29.5730 C.ar  246  HIS246      0.1154
     18  CE1       42.7630   27.6130   29.6690 C.ar  246  HIS246      0.1986
     19  NE2       41.7400   27.1570   30.3810 N.ar  246  HIS246     -0.2212
     20  N         42.8760   32.4030   27.5150 N.3   266  PRO266     -0.2102
     21  CA        43.8460   31.7810   28.4340 C.3   266  PRO266      0.1504
     22  C         43.7100   32.3270   29.8060 C.2   266  PRO266      0.2576
     23  O         42.8060   33.1170   30.1050 O.2   266  PRO266     -0.2718
     24  CB        45.2420   32.2030   27.9010 C.3   266  PRO266      0.0282
     25  CG        44.9890   32.9690   26.6600 C.3   266  PRO266      0.0208
     26  CD        43.5110   33.4590   26.7190 C.3   266  PRO266      0.0893
     27  N         44.5500   31.7520   30.6710 N.am  267  SER267     -0.1938
     28  CA        44.7340   32.1890   32.0310 C.3   267  SER267      0.2055
     29  C         44.7240   33.7060   32.1830 C.2   267  SER267      0.2643
     30  O         45.3210   34.4390   31.3840 O.2   267  SER267     -0.2714
     31  CB        46.1020   31.7430   32.4820 C.3   267  SER267      0.2130
     32  OG        46.4260   32.4100   33.6660 O.3   267  SER267     -0.2179
     33  N         44.0420   34.1340   33.2550 N.am  268  ALA268     -0.1963
     34  CA        43.8950   35.5490   33.5550 C.3   268  ALA268      0.1728
     35  C         43.0800   36.3030   32.5670 C.2   268  ALA268      0.2616
     36  O         43.0870   37.5640   32.5870 O.2   268  ALA268     -0.2715
     37  CB        45.2940   36.1740   33.6250 C.3   268  ALA268      0.0334
     38  N         42.3690   35.6250   31.6770 N.am  269  CYS269     -0.1954
     39  CA        41.7050   36.4350   30.6450 C.3   269  CYS269      0.1843
     40  C         40.1790   36.4680   30.6960 C.2   269  CYS269      0.2626
     41  O         39.5070   37.0270   29.7210 O.2   269  CYS269     -0.2714
     42  CB        42.1430   35.9520   29.3010 C.3   269  CYS269      0.0997
     43  SG        43.8820   36.4030   29.0400 S.3   269  CYS269     -0.0797
     44  N         39.6110   35.8790   31.7870 N.am  270  GLY270     -0.1940
     45  CA        38.1820   36.0310   31.9700 C.3   270  GLY270      0.2014
     46  C         37.0960   35.0610   31.5350 C.2   270  GLY270      0.2639
     47  O         35.9530   35.4520   31.4450 O.2   270  GLY270     -0.2714
     48  N         37.4220   33.7970   31.3640 N.am  271  LYS271     -0.1963
     49  CA        36.4880   32.8630   30.9680 C.3   271  LYS271      0.1728
     50  C         35.4260   32.8440   32.0780 C.2   271  LYS271      0.2617
     51  O         34.2370   33.0330   31.8750 O.2   271  LYS271     -0.2715
     52  CB        37.2000   31.5260   30.8410 C.3   271  LYS271      0.0311
     53  CG        37.9910   31.2890   29.4750 C.3   271  LYS271      0.0038
     54  CD        38.1650   29.8020   29.1140 C.3   271  LYS271      0.0206
     55  CE        39.1010   29.0510   30.1830 C.3   271  LYS271      0.1093
     56  NZ        40.1070   30.0400   30.8090 N.3   271  LYS271     -0.1314
     57  N         35.8700   32.6440   33.2790 N.am  272  THR272     -0.1937
     58  CA        34.9290   32.5640   34.3650 C.3   272  THR272      0.2028
     59  C         33.9880   33.7970   34.4800 C.2   272  THR272      0.2642
     60  O         32.7840   33.6270   34.7580 O.2   272  THR272     -0.2714
     61  CB        35.6260   31.9830   35.7200 C.3   272  THR272      0.1808
     62  OG1       36.3000   30.7220   35.4360 O.3   272  THR272     -0.2208
     63  CG2       34.5350   31.5600   36.6430 C.3   272  THR272      0.0379
     64  N         34.4760   35.0180   34.2380 N.am  273  ASN273     -0.1971
     65  CA        33.5750   36.1690   34.3180 C.3   273  ASN273      0.1688
     66  C         32.5360   36.0860   33.1930 C.2   273  ASN273      0.2292
     67  O         31.3280   36.3120   33.4240 O.2   273  ASN273     -0.2864
     68  CB        34.3460   37.5140   34.1680 C.3   273  ASN273      0.1181
     69  CG        35.2390   37.7450   35.3010 C.2   273  ASN273      0.2629
     70  OD1       34.8530   38.4030   36.3040 O.2   273  ASN273     -0.2716
     71  ND2       36.4170   37.1680   35.2340 N.am  273  ASN273     -0.0877
     72  N         32.5270   26.7850   32.7590 N.3   289  ASP289     -0.1225
     73  CA        33.4280   27.8860   32.7180 C.3   289  ASP289      0.1805
     74  C         34.8490   27.5800   32.2350 C.2   289  ASP289      0.2597
     75  O         35.6700   28.4860   32.1880 O.2   289  ASP289     -0.2718
     76  CB        33.4920   28.6010   34.0450 C.3   289  ASP289      0.1424
     77  CG        34.3690   27.9060   35.0110 C.2   289  ASP289      0.3668
     78  OD1       34.4730   26.6290   34.9020 O.co2 289  ASP289     -0.2456
     79  OD2       35.0040   28.5630   35.9140 O.co2 289  ASP289     -0.2456
     80  N         35.1570   26.3270   31.9830 N.am  290  ASP290     -0.1974
     81  CA        36.5590   25.9650   31.7030 C.3   290  ASP290      0.1709
     82  C         36.7720   24.9730   30.6000 C.2   290  ASP290      0.2293
     83  O         37.5600   25.1680   29.7180 O.2   290  ASP290     -0.2864
     84  CB        37.2530   25.4490   32.9760 C.3   290  ASP290      0.1436
     85  CG        38.7670   25.5220   32.8910 C.2   290  ASP290      0.3671
     86  OD1       39.2880   26.6150   32.5960 O.co2 290  ASP290     -0.2456
     87  OD2       39.4930   24.5140   33.0940 O.co2 290  ASP290     -0.2456
     88  N         36.4310   25.4980   39.2250 N.3   311  PHE311     -0.1241
     89  CA        37.7360   25.6170   39.8990 C.3   311  PHE311      0.1605
     90  C         38.3340   27.0170   39.5360 C.2   311  PHE311      0.2264
     91  O         39.2520   27.1620   38.7390 O.2   311  PHE311     -0.2867
     92  CB        38.6320   24.4640   39.4630 C.3   311  PHE311      0.0534
     93  CG        39.9140   24.3360   40.2600 C.ar  311  PHE311     -0.0203
     94  CD1       39.8600   23.8650   41.5880 C.ar  311  PHE311     -0.0042
     95  CD2       41.1530   24.5860   39.6630 C.ar  311  PHE311     -0.0042
     96  CE1       40.9770   23.7170   42.3480 C.ar  311  PHE311     -0.0003
     97  CE2       42.3190   24.4880   40.4380 C.ar  311  PHE311     -0.0003
     98  CZ        42.2210   24.0190   41.8080 C.ar  311  PHE311     -0.0000
     99  N         39.7190   30.9530   39.8170 N.3   313  VAL313     -0.1245
    100  CA        40.6930   31.8640   40.3120 C.3   313  VAL313      0.1561
    101  C         39.9080   32.8000   41.2450 C.2   313  VAL313      0.2260
    102  O         38.9040   33.3780   40.8620 O.2   313  VAL313     -0.2867
    103  CB        41.2790   32.7320   39.2150 C.3   313  VAL313      0.0252
    104  CG1       42.0410   33.9820   39.7930 C.3   313  VAL313      0.0019
    105  CG2       42.2060   31.9050   38.3200 C.3   313  VAL313      0.0019
    106  N         41.2330   35.6540   43.3640 N.3   315  PRO315     -0.2102
    107  CA        41.5340   37.0760   43.4010 C.3   315  PRO315      0.1504
    108  C         40.8760   37.7160   42.2150 C.2   315  PRO315      0.2576
    109  O         40.8700   37.0520   41.1170 O.2   315  PRO315     -0.2718
    110  CB        43.0680   37.1810   43.2490 C.3   315  PRO315      0.0282
    111  CG        43.5240   35.8260   43.7020 C.3   315  PRO315      0.0208
    112  CD        42.4140   34.7940   43.4700 C.3   315  PRO315      0.0893
    113  N         40.4250   38.9730   42.3980 N.am  316  GLY316     -0.1957
    114  CA        39.6620   39.6570   41.3820 C.3   316  GLY316      0.1869
    115  C         38.1700   39.3170   41.3910 C.2   316  GLY316      0.2309
    116  O         37.4230   40.0160   40.8110 O.2   316  GLY316     -0.2863
    117  N         32.5580   42.3210   39.7660 N.3   321  THR321     -0.1218
    118  CA        33.1370   41.7180   38.6130 C.3   321  THR321      0.1862
    119  C         32.4650   40.3860   38.3470 C.2   321  THR321      0.2287
    120  O         32.3680   39.9500   37.2090 O.2   321  THR321     -0.2866
    121  CB        34.6210   41.5090   38.7800 C.3   321  THR321      0.1770
    122  OG1       34.8750   40.6820   39.9410 O.3   321  THR321     -0.2211
    123  CG2       35.3450   42.9000   39.0090 C.3   321  THR321      0.0375
    124  N         47.0960   32.9690   42.1140 N.3   381  ASN381     -0.1296
    125  CA        46.3230   32.0120   41.4000 C.3   381  ASN381      0.1339
    126  C         45.5740   31.0530   42.4290 C.3   381  ASN381      0.2014
    127  O         45.2140   29.8550   42.1310 O.3   381  ASN381     -0.2188
    128  CB        47.1840   31.2580   40.4150 C.3   381  ASN381      0.1102
    129  CG        46.4320   30.9600   39.0630 C.2   381  ASN381      0.2623
    130  OD1       46.1710   29.8160   38.8040 O.2   381  ASN381     -0.2716
    131  ND2       46.1430   32.0420   38.1680 N.am  381  ASN381     -0.0877
    132  N         42.4520   29.5330   44.3640 N.3   383  ARG383     -0.1245
    133  CA        41.3050   29.0130   43.8010 C.3   383  ARG383      0.1563
    134  C         40.1560   28.7910   44.7910 C.2   383  ARG383      0.2260
    135  O         40.3880   28.6830   46.0030 O.2   383  ARG383     -0.2867
    136  CB        41.7570   27.6730   43.3280 C.3   383  ARG383      0.0307
    137  CG        42.6700   27.8030   42.1160 C.3   383  ARG383      0.0489
    138  CD        41.9260   27.8650   40.7500 C.3   383  ARG383      0.2205
    139  NE        42.8750   28.1160   39.6650 N.pl3 383  ARG383     -0.0865
    140  CZ        42.5840   28.3720   38.3590 C.cat 383  ARG383      0.5346
    141  NH1       41.3000   28.5470   37.8230 N.pl3 383  ARG383      0.1354
    142  NH2       43.6740   28.5860   37.6180 N.pl3 383  ARG383      0.1354
    143  N         44.5460   39.0000   26.2540 N.3   414  ARG414     -0.1245
    144  CA        44.7810   40.3800   26.6980 C.3   414  ARG414      0.1563
    145  C         45.6600   41.1380   25.6420 C.2   414  ARG414      0.2260
    146  O         46.8350   40.8380   25.4500 O.2   414  ARG414     -0.2867
    147  CB        45.5090   40.4070   28.0610 C.3   414  ARG414      0.0307
    148  CG        44.6610   40.0180   29.3290 C.3   414  ARG414      0.0489
    149  CD        45.5100   39.6320   30.6060 C.3   414  ARG414      0.2205
    150  NE        44.5950   39.4830   31.7210 N.pl3 414  ARG414     -0.0865
    151  CZ        44.2490   40.4640   32.5340 C.cat 414  ARG414      0.5346
    152  NH1       44.7790   41.6950   32.3590 N.pl3 414  ARG414      0.1354
    153  NH2       43.3520   40.2260   33.4910 N.pl3 414  ARG414      0.1354
    154  N         39.0900   42.3750   25.4460 N.3   482  TRP482     -0.1227
    155  CA        38.4650   43.2650   26.4260 C.3   482  TRP482      0.1737
    156  C         39.5500   44.2020   26.9890 C.2   482  TRP482      0.2595
    157  O         39.2670   45.0880   27.7930 O.2   482  TRP482     -0.2718
    158  CB        37.9660   42.4740   27.6540 C.3   482  TRP482      0.0564
    159  CG        37.0980   41.2240   27.4840 C.ar  482  TRP482      0.0003
    160  CD1       37.1090   40.1790   28.3000 C.ar  482  TRP482      0.0946
    161  CD2       35.9700   41.0560   26.6130 C.ar  482  TRP482      0.0152
    162  NE1       36.1110   39.2920   27.9400 N.ar  482  TRP482     -0.2442
    163  CE2       35.4300   39.8070   26.8640 C.ar  482  TRP482      0.0810
    164  CE3       35.4200   41.8060   25.5720 C.ar  482  TRP482      0.0012
    165  CZ2       34.3390   39.2680   26.1220 C.ar  482  TRP482      0.0191
    166  CZ3       34.3240   41.2930   24.8480 C.ar  482  TRP482      0.0001
    167  CH2       33.8090   40.0220   25.1100 C.ar  482  TRP482      0.0015
    168  N         40.7880   44.0350   26.5570 N.am  483  PHE483     -0.1976
    169  CA        41.8380   44.6820   27.3320 C.3   483  PHE483      0.1639
    170  C         42.6380   45.7420   26.5960 C.2   483  PHE483      0.2290
    171  O         43.7250   46.0680   27.0340 O.2   483  PHE483     -0.2864
    172  CB        42.8410   43.6240   27.9180 C.3   483  PHE483      0.0560
    173  CG        42.1950   42.5650   28.7190 C.ar  483  PHE483     -0.0200
    174  CD1       41.6800   41.4170   28.1020 C.ar  483  PHE483     -0.0042
    175  CD2       42.0400   42.7090   30.1140 C.ar  483  PHE483     -0.0042
    176  CE1       41.0690   40.4250   28.8160 C.ar  483  PHE483     -0.0003
    177  CE2       41.4290   41.7230   30.8620 C.ar  483  PHE483     -0.0003
    178  CZ        40.9210   40.5770   30.2330 C.ar  483  PHE483     -0.0000
    179  N         42.0190   51.1150   30.4360 N.3   491  PHE491     -0.1241
    180  CA        41.1550   50.3150   29.5760 C.3   491  PHE491      0.1605
    181  C         40.2660   51.1020   28.7280 C.2   491  PHE491      0.2264
    182  O         39.5330   51.9420   29.1660 O.2   491  PHE491     -0.2867
    183  CB        40.3380   49.2770   30.4210 C.3   491  PHE491      0.0534
    184  CG        41.2130   48.1860   30.9470 C.ar  491  PHE491     -0.0203
    185  CD1       41.2130   47.8440   32.2850 C.ar  491  PHE491     -0.0042
    186  CD2       42.0860   47.5730   30.0830 C.ar  491  PHE491     -0.0042
    187  CE1       42.0640   46.8520   32.7740 C.ar  491  PHE491     -0.0003
    188  CE2       42.9330   46.5380   30.5340 C.ar  491  PHE491     -0.0003
    189  CZ        42.9350   46.1730   31.8900 C.ar  491  PHE491     -0.0000
    190  N         37.6730   49.8530   27.3830 N.3   493  TRP493     -0.1228
    191  CA        36.3510   49.2310   27.4830 C.3   493  TRP493      0.1722
    192  C         36.0680   48.7590   28.8600 C.2   493  TRP493      0.2437
    193  O         36.8010   48.0560   29.4230 O.2   493  TRP493     -0.2733
    194  CB        36.2920   48.0120   26.5920 C.3   493  TRP493      0.0563
    195  CG        34.9670   47.3450   26.4780 C.ar  493  TRP493      0.0003
    196  CD1       34.6340   46.1440   27.0160 C.ar  493  TRP493      0.0946
    197  CD2       33.7830   47.8270   25.8270 C.ar  493  TRP493      0.0152
    198  NE1       33.3320   45.8120   26.7030 N.ar  493  TRP493     -0.2442
    199  CE2       32.7730   46.8080   25.9630 C.ar  493  TRP493      0.0810
    200  CE3       33.4790   48.9730   25.0750 C.ar  493  TRP493      0.0012
    201  CZ2       31.4510   46.9370   25.4540 C.ar  493  TRP493      0.0191
    202  CZ3       32.1520   49.1030   24.5270 C.ar  493  TRP493      0.0001
    203  CH2       31.1580   48.0870   24.6890 C.ar  493  TRP493      0.0015
    204  N         34.9290   49.0790   29.3610 N.am  494  PRO494     -0.2718
    205  CA        34.6080   48.7370   30.7650 C.3   494  PRO494      0.1535
    206  C         34.4440   47.2790   30.9740 C.2   494  PRO494      0.2599
    207  O         34.7360   46.8290   32.0520 O.2   494  PRO494     -0.2715
    208  CB        33.3370   49.5400   31.0860 C.3   494  PRO494      0.0310
    209  CG        32.8230   49.9900   29.7080 C.3   494  PRO494      0.0237
    210  CD        33.8760   49.7630   28.6330 C.3   494  PRO494      0.0939
    211  N         34.0470   46.5160   29.9570 N.am  495  GLY495     -0.1941
    212  CA        33.9820   45.0440   30.1500 C.3   495  GLY495      0.2014
    213  C         33.0110   44.4840   31.1920 C.2   495  GLY495      0.2638
    214  O         32.0000   45.1070   31.5600 O.2   495  GLY495     -0.2714
    215  N         33.3210   43.2730   31.6350 N.am  496  PHE496     -0.1973
    216  CA        32.5130   42.6580   32.6040 C.3   496  PHE496      0.1639
    217  C         31.1170   42.5720   32.0220 C.2   496  PHE496      0.2290
    218  O         30.9460   42.1870   30.8510 O.2   496  PHE496     -0.2864
    219  CB        32.6590   43.2860   34.0520 C.3   496  PHE496      0.0560
    220  CG        34.1760   43.2620   34.5960 C.ar  496  PHE496     -0.0200
    221  CD1       35.0080   44.3860   34.4940 C.ar  496  PHE496     -0.0042
    222  CD2       34.7660   42.0760   35.0170 C.ar  496  PHE496     -0.0042
    223  CE1       36.3620   44.3640   34.8500 C.ar  496  PHE496     -0.0003
    224  CE2       36.1010   42.0050   35.4110 C.ar  496  PHE496     -0.0003
    225  CZ        36.9230   43.1950   35.3570 C.ar  496  PHE496     -0.0000
    226  N         30.1820   43.4370   28.6060 N.3   499  ASN499     -0.1240
    227  CA        30.4580   42.5570   27.4410 C.3   499  ASN499      0.1653
    228  C         29.2320   41.9970   26.7500 C.2   499  ASN499      0.2266
    229  O         29.3040   41.5840   25.6390 O.2   499  ASN499     -0.2867
    230  CB        31.5190   41.4440   27.7000 C.3   499  ASN499      0.1155
    231  CG        32.9480   42.0420   27.9790 C.2   499  ASN499      0.2627
    232  OD1       33.3560   43.1770   27.4230 O.2   499  ASN499     -0.2716
    233  ND2       33.6470   41.3960   28.9020 N.am  499  ASN499     -0.0877
@<TRIPOS>BOND
     1   202   203   ar
     2   202   200   ar
     3   203   201   ar
     4   166   167   ar
     5   166   164   ar
     6   200   197   ar
     7   167   165   ar
     8   154   155    1
     9   146   145    2
    10   201   199   ar
    11   164   161   ar
    12   229   228    2
    13   145   144    1
    14   197   199   ar
    15   197   195   ar
    16    10    11    1
    17   199   198   ar
    18   165   163   ar
    19   143   144    1
    20   155   156    1
    21   155   158    1
    22   195   194    1
    23   195   196   ar
    24   168   156   am
    25   168   169    1
    26   194   191    1
    27   170   171    2
    28   170   169    1
    29   161   163   ar
    30   161   159   ar
    31    25    26    1
    32    25    24    1
    33    13    12    2
    34   144   147    1
    35   198   196   ar
    36    26    20    1
    37   228   227    1
    38    12    11    1
    39   163   162   ar
    40   156   157    2
    41    11    14    1
    42    14    15    1
    43   169   172    1
    44   190   191    1
    45   232   231    2
    46   227   230    1
    47   227   226    1
    48   191   192    1
    49   159   158    1
    50   159   160   ar
    51    20    21    1
    52   230   231    1
    53    24    21    1
    54   172   173    1
    55   162   160   ar
    56   231   233   am
    57   147   148    1
    58   174   173   ar
    59   174   176   ar
    60    15    16   ar
    61    15    17   ar
    62    16    18   ar
    63    21    22    1
    64   210   204    1
    65   210   209    1
    66   173   175   ar
    67   181   182    2
    68   181   180    1
    69   176   178   ar
    70   192   204   am
    71   192   193    2
    72    43    42    1
    73    54    53    1
    74    54    55    1
    75    42    39    1
    76   148   149    1
    77   204   205    1
    78    53    52    1
    79    17    19   ar
    80   180   183    1
    81   180   179    1
    82    18    19   ar
    83   209   208    1
    84    83    82    2
    85    41    40    2
    86    22    23    2
    87    22    27   am
    88   211   212    1
    89   211   206   am
    90   186   188   ar
    91   186   184   ar
    92   175   177   ar
    93   212   213    1
    94    55    56    1
    95   178   177   ar
    96   183   184    1
    97   188   189   ar
    98    82    81    1
    99   149   150    1
   100    39    40    1
   101    39    38    1
   102    27    28    1
   103    40    44   am
   104   205   206    1
   105   205   208    1
   106    52    49    1
   107   218   217    2
   108     4     3    2
   109   184   185   ar
   110    49    48    1
   111    49    50    1
   112   206   207    2
   113   213   214    2
   114   213   215   am
   115    48    46   am
   116    30    29    2
   117    47    46    2
   118    46    45    1
   119   215   216    1
   120    38    35   am
   121    81    80    1
   122    81    84    1
   123   150   151    2
   124    44    45    1
   125    51    50    2
   126   189   187   ar
   127    80    74   am
   128   217   216    1
   129    28    29    1
   130    28    31    1
   131    50    57   am
   132     3     2    1
   133    29    33   am
   134    75    74    2
   135    74    73    1
   136   185   187   ar
   137     9     8    1
   138   152   151    1
   139    31    32    1
   140   151   153    1
   141    35    36    2
   142    35    34    1
   143    86    85   ar
   144   216   219    1
   145     7     8    1
   146     7     6    1
   147    73    72    1
   148    73    76    1
   149     2     5    1
   150     2     1    1
   151    85    84    1
   152    85    87   ar
   153     5     6    1
   154    66    67    2
   155    66    65    1
   156    33    34    1
   157    57    58    1
   158    34    37    1
   159    76    77    1
   160   219   220    1
   161    68    65    1
   162    68    69    1
   163    64    65    1
   164    64    59   am
   165    58    59    1
   166    58    61    1
   167    59    60    2
   168   221   220   ar
   169   221   223   ar
   170   220   222   ar
   171   223   225   ar
   172    78    77   ar
   173    77    79   ar
   174   222   224   ar
   175    71    69   am
   176    69    70    2
   177   225   224   ar
   178    62    61    1
   179    61    63    1
   180   120   119    2
   181   142   140    1
   182   141   140    1
   183   131   129   am
   184   105   103    1
   185   119   118    1
   186   140   139    2
   187   118   121    1
   188   118   117    1
   189    91    90    2
   190   121   123    1
   191   121   122    1
   192   130   129    2
   193   129   128    1
   194   103   104    1
   195   103   100    1
   196    88    89    1
   197    92    89    1
   198    92    93    1
   199    90    89    1
   200    95    93   ar
   201    95    97   ar
   202   139   138    1
   203    99   100    1
   204    93    94   ar
   205   100   101    1
   206   128   125    1
   207    97    98   ar
   208   138   137    1
   209   116   115    2
   210   102   101    2
   211   109   108    2
   212   114   115    1
   213   114   113    1
   214   125   124    1
   215   125   126    1
   216    94    96   ar
   217    98    96   ar
   218   137   136    1
   219   127   126    1
   220   108   113   am
   221   108   107    1
   222   110   107    1
   223   110   111    1
   224   136   133    1
   225   106   107    1
   226   106   112    1
   227   112   111    1
   228   133   132    1
   229   133   134    1
   230   134   135    2
