@<TRIPOS>MOLECULE
tmp/1khpA00.pdb
 137 137 0 0 0
SMALL
GASTEIGER

@<TRIPOS>ATOM
      1  N         10.1290   10.2300   11.0800 N.3    19  GLN19      -0.1245
      2  CA        10.0250   10.1360    9.6480 C.3    19  GLN19       0.1566
      3  C         10.3810   11.4650    8.9810 C.2    19  GLN19       0.2260
      4  O         10.7320   11.4990    7.7930 O.2    19  GLN19      -0.2867
      5  CB         8.6170    9.7270    9.2730 C.3    19  GLN19       0.0367
      6  CG         7.5310   10.7310    9.6620 C.3    19  GLN19       0.0905
      7  CD         6.1670   10.1440    9.4340 C.2    19  GLN19       0.2608
      8  OE1        5.6810    9.3800   10.2540 O.2    19  GLN19      -0.2717
      9  NE2        5.5520   10.4760    8.3030 N.am   19  GLN19      -0.0878
     10  N          5.8650   11.8270    3.8320 N.3    23  GLY23      -0.1225
     11  CA         4.7620   10.9580    4.2770 C.3    23  GLY23       0.1811
     12  C          5.0340    9.4470    4.1580 C.2    23  GLY23       0.2280
     13  O          4.3930    8.7740    3.3500 O.2    23  GLY23      -0.2866
     14  N          4.9180    7.1300    6.7650 N.3    25  CYS25      -0.1221
     15  CA         4.3280    6.4950    7.9400 C.3    25  CYS25       0.1808
     16  C          3.8990    5.0930    7.6350 C.2    25  CYS25       0.2601
     17  O          4.3240    4.2110    8.3470 O.2    25  CYS25      -0.2717
     18  CB         3.1770    7.2990    8.5270 C.3    25  CYS25       0.0970
     19  SG         1.7470    7.2480    7.4560 S.3    25  CYS25      -0.0800
     20  N          3.5440    4.8150    6.3820 N.am   26  TRP26      -0.1976
     21  CA         3.1620    3.4350    5.9930 C.3    26  TRP26       0.1640
     22  C          4.4110    2.5640    6.0680 C.2    26  TRP26       0.2290
     23  O          4.3410    1.3930    6.4450 O.2    26  TRP26      -0.2864
     24  CB         2.5380    3.4110    4.5770 C.3    26  TRP26       0.0576
     25  CG         3.4420    4.0840    3.5470 C.ar   26  TRP26       0.0006
     26  CD1        3.5570    5.4350    3.3070 C.ar   26  TRP26       0.0946
     27  CD2        4.3400    3.4440    2.6390 C.ar   26  TRP26       0.0152
     28  NE1        4.4640    5.6490    2.3000 N.ar   26  TRP26      -0.2442
     29  CE2        4.9500    4.4450    1.8710 C.ar   26  TRP26       0.0810
     30  CE3        4.6770    2.1180    2.3830 C.ar   26  TRP26       0.0012
     31  CZ2        5.8920    4.1640    0.8700 C.ar   26  TRP26       0.0191
     32  CZ3        5.6350    1.8440    1.3880 C.ar   26  TRP26       0.0001
     33  CH2        6.2160    2.8540    0.6580 C.ar   26  TRP26       0.0015
     34  N          3.3850    5.6460   -2.8680 N.3    61  TYR61      -0.1241
     35  CA         3.7080    6.9450   -3.4860 C.3    61  TYR61       0.1605
     36  C          4.8960    7.6290   -2.8440 C.2    61  TYR61       0.2264
     37  O          4.9360    8.8500   -2.7760 O.2    61  TYR61      -0.2867
     38  CB         2.5140    7.9090   -3.4220 C.3    61  TYR61       0.0534
     39  CG         1.1770    7.3380   -3.8370 C.ar   61  TYR61      -0.0201
     40  CD1        0.9380    6.9360   -5.1500 C.ar   61  TYR61      -0.0009
     41  CD2        0.1330    7.2280   -2.9130 C.ar   61  TYR61      -0.0009
     42  CE1       -0.3030    6.4260   -5.5350 C.ar   61  TYR61       0.0417
     43  CE2       -1.1040    6.7170   -3.2760 C.ar   61  TYR61       0.0417
     44  CZ        -1.3210    6.3140   -4.5880 C.ar   61  TYR61       0.1957
     45  OH        -2.5600    5.8140   -4.9410 O.3    61  TYR61      -0.2866
     46  N          4.6930   10.7720   -0.6790 N.3    64  ASN64      -0.1225
     47  CA         3.3290   11.2160   -0.8140 C.3    64  ASN64       0.1785
     48  C          2.3170   10.2610   -0.2070 C.2    64  ASN64       0.2598
     49  O          1.1170   10.5020   -0.2820 O.2    64  ASN64      -0.2718
     50  CB         3.0360   11.4170   -2.2690 C.3    64  ASN64       0.1169
     51  CG         3.7640   12.5990   -2.8280 C.2    64  ASN64       0.2627
     52  OD1        4.4380   12.4970   -3.8410 O.2    64  ASN64      -0.2716
     53  ND2        3.6090   13.7410   -2.1770 N.am   64  ASN64      -0.0877
     54  N          2.7890    9.1830    0.4070 N.am   65  GLY65      -0.1942
     55  CA         1.8930    8.2550    1.0630 C.3    65  GLY65       0.2014
     56  C          1.9820    6.8720    0.4520 C.2    65  GLY65       0.2639
     57  O          2.6400    6.6870   -0.5740 O.2    65  GLY65      -0.2714
     58  N          1.3350    5.8920    1.0860 N.am   66  GLY66      -0.1939
     59  CA         1.4150    4.5230    0.6010 C.3    66  GLY66       0.2014
     60  C          0.6140    3.5810    1.4690 C.2    66  GLY66       0.2639
     61  O         -0.1850    4.0240    2.3030 O.2    66  GLY66      -0.2714
     62  N          0.8300    2.2820    1.2820 N.am   67  TYR67      -0.1960
     63  CA         0.0380    1.2440    1.9760 C.3    67  TYR67       0.1756
     64  C          0.8950    0.2380    2.7680 C.2    67  TYR67       0.2461
     65  O          1.6860   -0.5060    2.1860 O.2    67  TYR67      -0.2730
     66  CB        -0.8320    0.4790    0.9570 C.3    67  TYR67       0.0574
     67  CG        -1.5420    1.3610   -0.0260 C.ar   67  TYR67      -0.0198
     68  CD1       -2.5500    2.2130    0.3820 C.ar   67  TYR67      -0.0009
     69  CD2       -1.2000    1.3600   -1.3640 C.ar   67  TYR67      -0.0009
     70  CE1       -3.2020    3.0230   -0.5080 C.ar   67  TYR67       0.0417
     71  CE2       -1.8670    2.1770   -2.2820 C.ar   67  TYR67       0.0417
     72  CZ        -2.8550    3.0040   -1.8320 C.ar   67  TYR67       0.1957
     73  OH        -3.4950    3.8300   -2.6940 O.3    67  TYR67      -0.2866
     74  N          0.7000    0.1640    4.0810 N.am   68  PRO68      -0.2716
     75  CA         1.5370   -0.7080    4.9040 C.3    68  PRO68       0.1536
     76  C          1.3280   -2.1480    4.4290 C.2    68  PRO68       0.2598
     77  O          2.2440   -2.9640    4.4550 O.2    68  PRO68      -0.2715
     78  CB         0.9770   -0.5250    6.3060 C.3    68  PRO68       0.0310
     79  CG         0.0260    0.6460    6.2370 C.3    68  PRO68       0.0237
     80  CD        -0.3930    0.7840    4.8480 C.3    68  PRO68       0.0939
     81  N          0.1380   -2.4720    3.9510 N.am   69  TRP69      -0.1974
     82  CA        -0.0010   -3.8330    3.4720 C.3    69  TRP69       0.1640
     83  C          0.8370   -4.1510    2.1870 C.2    69  TRP69       0.2290
     84  O          1.2590   -5.2830    1.9880 O.2    69  TRP69      -0.2864
     85  CB        -1.4510   -4.1840    3.2770 C.3    69  TRP69       0.0576
     86  CG        -2.1530   -3.3340    2.3160 C.ar   69  TRP69       0.0006
     87  CD1       -3.0060   -2.2780    2.5890 C.ar   69  TRP69       0.0946
     88  CD2       -2.1210   -3.4640    0.9020 C.ar   69  TRP69       0.0152
     89  NE1       -3.5070   -1.7690    1.4100 N.ar   69  TRP69      -0.2442
     90  CE2       -2.9750   -2.4730    0.3620 C.ar   69  TRP69       0.0810
     91  CE3       -1.4630   -4.3300    0.0250 C.ar   69  TRP69       0.0012
     92  CZ2       -3.1760   -2.3270   -1.0010 C.ar   69  TRP69       0.0191
     93  CZ3       -1.6630   -4.1820   -1.3280 C.ar   69  TRP69       0.0001
     94  CH2       -2.5090   -3.1890   -1.8320 C.ar   69  TRP69       0.0015
     95  N         -4.0810    1.8260   11.5030 N.3   133  VAL133     -0.1245
     96  CA        -4.2720    3.1750   11.0340 C.3   133  VAL133      0.1561
     97  C         -5.1890    3.9370   11.9820 C.2   133  VAL133      0.2260
     98  O         -5.9240    3.3530   12.7730 O.2   133  VAL133     -0.2867
     99  CB        -4.7690    3.1790    9.5740 C.3   133  VAL133      0.0252
    100  CG1       -3.6980    2.5910    8.6530 C.3   133  VAL133      0.0019
    101  CG2       -6.0560    2.3990    9.4350 C.3   133  VAL133      0.0019
    102  N         -9.3120    8.0340    8.9610 N.3   157  VAL157     -0.1231
    103  CA        -7.9370    7.6180    9.1120 C.3   157  VAL157      0.1692
    104  C         -7.0570    8.1570    8.0040 C.2   157  VAL157      0.2592
    105  O         -7.4820    8.2990    6.8720 O.2   157  VAL157     -0.2718
    106  CB        -7.8650    6.1370    9.2080 C.3   157  VAL157      0.0266
    107  CG1       -8.7670    5.7160   10.3570 C.3   157  VAL157      0.0020
    108  CG2       -8.3390    5.5120    7.8870 C.3   157  VAL157      0.0020
    109  N         -5.8280    8.4950    8.3760 N.am  158  ASP158     -0.1960
    110  CA        -4.8840    9.0840    7.4500 C.3   158  ASP158      0.1840
    111  C         -3.4830    8.8510    7.9590 C.2   158  ASP158      0.2622
    112  O         -2.5620    9.5160    7.5160 O.2   158  ASP158     -0.2715
    113  CB        -5.0790   10.5890    7.4870 C.3   158  ASP158      0.1450
    114  CG        -4.9750   11.1580    8.9280 C.2   158  ASP158      0.3671
    115  OD1       -4.3410   10.5630    9.8340 O.co2 158  ASP158     -0.2456
    116  OD2       -5.5030   12.2200    9.2310 O.co2 158  ASP158     -0.2456
    117  N         -3.2950    7.9330    8.9040 N.am  159  HIS159     -0.1959
    118  CA        -1.9540    7.7930    9.4600 C.3   159  HIS159      0.1787
    119  C         -1.7280    6.3690    9.9230 C.2   159  HIS159      0.2620
    120  O         -2.5590    5.8250   10.6160 O.2   159  HIS159     -0.2715
    121  CB        -1.8030    8.7870   10.6140 C.3   159  HIS159      0.0785
    122  CG        -0.4530    8.7930   11.2620 C.ar  159  HIS159      0.0821
    123  ND1        0.7240    8.9670   10.5560 N.ar  159  HIS159     -0.2267
    124  CD2       -0.1010    8.7420   12.5690 C.ar  159  HIS159      0.1154
    125  CE1        1.7450    8.9420   11.3970 C.ar  159  HIS159      0.1986
    126  NE2        1.2730    8.8480   12.6260 N.ar  159  HIS159     -0.2212
    127  N         -0.6360    5.7570    9.5150 N.am  160  ALA160     -0.1977
    128  CA        -0.3310    4.3790    9.9040 C.3   160  ALA160      0.1597
    129  C          0.7490    4.3310   11.0070 C.2   160  ALA160      0.2287
    130  O          1.7700    5.0120   10.8970 O.2   160  ALA160     -0.2864
    131  CB         0.1660    3.6280    8.6770 C.3   160  ALA160      0.0319
    132  N         -8.2020   -0.7790    9.7780 N.3   205  SER205     -0.1217
    133  CA        -7.3290   -1.5300    8.8400 C.3   205  SER205      0.1889
    134  C         -6.0300   -1.9630    9.5020 C.2   205  SER205      0.2288
    135  O         -5.0830   -1.1370    9.6790 O.2   205  SER205     -0.2866
    136  CB        -7.0190   -0.6250    7.6400 C.3   205  SER205      0.2089
    137  OG        -6.4660   -1.3600    6.6010 O.3   205  SER205     -0.2183
@<TRIPOS>BOND
     1    42    40   ar
     2    42    44   ar
     3    40    39   ar
     4    45    44    1
     5    44    43   ar
     6    52    51    2
     7    39    38    1
     8    39    41   ar
     9    35    38    1
    10    35    34    1
    11    35    36    1
    12    43    41   ar
    13    36    37    2
    14    51    50    1
    15    51    53   am
    16    73    72    1
    17    71    72   ar
    18    71    69   ar
    19    50    47    1
    20    72    70   ar
    21    94    93   ar
    22    94    92   ar
    23    69    67   ar
    24    93    91   ar
    25    92    90   ar
    26    47    46    1
    27    47    48    1
    28    57    56    2
    29    70    68   ar
    30    49    48    2
    31    48    54   am
    32    67    68   ar
    33    67    66    1
    34    91    88   ar
    35    90    88   ar
    36    90    89   ar
    37    54    55    1
    38    56    55    1
    39    56    58   am
    40    59    58    1
    41    59    60    1
    42    33    31   ar
    43    33    32   ar
    44    31    29   ar
    45    88    86   ar
    46    66    63    1
    47    62    60   am
    48    62    63    1
    49    32    30   ar
    50    89    87   ar
    51    60    61    2
    52    29    28   ar
    53    29    27   ar
    54    63    64    1
    55    84    83    2
    56    65    64    2
    57    83    82    1
    58    28    26   ar
    59    86    87   ar
    60    86    85    1
    61    30    27   ar
    62    27    25   ar
    63    64    74   am
    64    85    82    1
    65    26    25   ar
    66    13    12    2
    67    82    81    1
    68    25    24    1
    69    10    11    1
    70    81    76   am
    71    74    80    1
    72    74    75    1
    73    12    11    1
    74    76    77    2
    75    76    75    1
    76    24    21    1
    77    80    79    1
    78    75    78    1
    79    21    22    1
    80    21    20    1
    81    22    23    2
    82    79    78    1
    83    20    16   am
    84   137   136    1
    85    14    15    1
    86   105   104    2
    87   110   113    1
    88   110   111    1
    89   110   109    1
    90    19    18    1
    91   113   114    1
    92   112   111    2
    93    16    15    1
    94    16    17    2
    95   136   133    1
    96     4     3    2
    97   108   106    1
    98    15    18    1
    99   111   117   am
   100   104   109   am
   101   104   103    1
   102     9     7   am
   103   100    99    1
   104   131   128    1
   105   133   134    1
   106   133   132    1
   107   117   118    1
   108   114   116   ar
   109   114   115   ar
   110   102   103    1
   111     3     2    1
   112   103   106    1
   113   106   107    1
   114     5     2    1
   115     5     6    1
   116     7     6    1
   117     7     8    2
   118   101    99    1
   119   118   119    1
   120   118   121    1
   121   134   135    2
   122   127   128    1
   123   127   119   am
   124    99    96    1
   125     2     1    1
   126   128   129    1
   127   119   120    2
   128   123   122   ar
   129   123   125   ar
   130   121   122    1
   131   130   129    2
   132    96    95    1
   133    96    97    1
   134   122   124   ar
   135   125   126   ar
   136    97    98    2
   137   124   126   ar
