@<TRIPOS>MOLECULE
tmp/1khrE00.pdb
 132 128 0 0 0
SMALL
GASTEIGER

@<TRIPOS>ATOM
      1  N        -14.7290  -37.1670  -21.5170 N.3    51  TYR51      -0.1241
      2  CA       -13.4030  -37.7630  -21.5420 C.3    51  TYR51       0.1605
      3  C        -13.0350  -38.6800  -20.3840 C.2    51  TYR51       0.2264
      4  O        -11.9010  -38.6340  -19.9040 O.2    51  TYR51      -0.2867
      5  CB       -12.3550  -36.6440  -21.6620 C.3    51  TYR51       0.0534
      6  CG       -12.6080  -35.6740  -22.8090 C.ar   51  TYR51      -0.0201
      7  CD1      -13.0370  -34.3640  -22.5700 C.ar   51  TYR51      -0.0009
      8  CD2      -12.4070  -36.0660  -24.1340 C.ar   51  TYR51      -0.0009
      9  CE1      -13.2580  -33.4720  -23.6230 C.ar   51  TYR51       0.0417
     10  CE2      -12.6250  -35.1840  -25.1900 C.ar   51  TYR51       0.0417
     11  CZ       -13.0480  -33.8930  -24.9310 C.ar   51  TYR51       0.1957
     12  OH       -13.2470  -33.0320  -25.9870 O.3    51  TYR51      -0.2866
     13  N        -12.0640  -42.1080  -19.5420 N.3    53  TYR53      -0.1241
     14  CA       -11.6290  -43.3940  -20.0770 C.3    53  TYR53       0.1605
     15  C        -11.1370  -44.3090  -18.9670 C.2    53  TYR53       0.2264
     16  O        -10.1730  -43.9980  -18.2720 O.2    53  TYR53      -0.2867
     17  CB       -10.5390  -43.1830  -21.1320 C.3    53  TYR53       0.0534
     18  CG       -11.0270  -42.3660  -22.3030 C.ar   53  TYR53      -0.0201
     19  CD1      -10.2990  -41.2750  -22.7700 C.ar   53  TYR53      -0.0009
     20  CD2      -12.2520  -42.6470  -22.9060 C.ar   53  TYR53      -0.0009
     21  CE1      -10.7850  -40.4820  -23.8040 C.ar   53  TYR53       0.0417
     22  CE2      -12.7420  -41.8650  -23.9350 C.ar   53  TYR53       0.0417
     23  CZ       -12.0090  -40.7840  -24.3780 C.ar   53  TYR53       0.1957
     24  OH       -12.5050  -39.9860  -25.3820 O.3    53  TYR53      -0.2866
     25  N         -9.3500  -46.8210  -18.9680 N.3    55  ILE55      -0.1231
     26  CA        -7.9400  -47.1660  -19.0900 C.3    55  ILE55       0.1692
     27  C         -6.9910  -46.2280  -18.3350 C.2    55  ILE55       0.2591
     28  O         -5.9490  -46.6600  -17.8590 O.2    55  ILE55      -0.2718
     29  CB        -7.5060  -47.2290  -20.5730 C.3    55  ILE55       0.0266
     30  CG1       -6.0030  -47.5200  -20.6590 C.3    55  ILE55       0.0019
     31  CG2       -7.8450  -45.9280  -21.2720 C.3    55  ILE55       0.0020
     32  CD1       -5.5720  -48.2670  -21.9170 C.3    55  ILE55       0.0001
     33  N         -7.3310  -44.9470  -18.2380 N.am   56  LEU56      -0.1980
     34  CA        -6.4780  -44.0010  -17.5160 C.3    56  LEU56       0.1596
     35  C         -6.7170  -44.2200  -16.0310 C.2    56  LEU56       0.2287
     36  O         -6.0060  -43.6870  -15.1810 O.2    56  LEU56      -0.2864
     37  CB        -6.8440  -42.5630  -17.8720 C.3    56  LEU56       0.0297
     38  CG        -6.8280  -42.2040  -19.3510 C.3    56  LEU56       0.0022
     39  CD1       -7.2260  -40.7510  -19.5450 C.3    56  LEU56       0.0001
     40  CD2       -5.4420  -42.4540  -19.8900 C.3    56  LEU56       0.0001
     41  N         -9.1330  -37.6650  -19.9180 N.3    78  GLY78      -0.1210
     42  CA        -9.0060  -38.1170  -21.2880 C.3    78  GLY78       0.1956
     43  C         -8.8110  -36.9750  -22.2780 C.2    78  GLY78       0.2612
     44  O         -8.6060  -37.2060  -23.4650 O.2    78  GLY78      -0.2717
     45  N         -8.8580  -35.7380  -21.7950 N.am   79  ALA79      -0.1965
     46  CA        -8.7230  -34.5750  -22.6630 C.3    79  ALA79       0.1728
     47  C         -7.3270  -33.9560  -22.6790 C.2    79  ALA79       0.2616
     48  O         -7.0560  -33.0320  -23.4450 O.2    79  ALA79      -0.2715
     49  CB        -9.7450  -33.5330  -22.2540 C.3    79  ALA79       0.0334
     50  N         -6.4470  -34.4700  -21.8310 N.am   80  ASN80      -0.1958
     51  CA        -5.0870  -33.9740  -21.7230 C.3    80  ASN80       0.1819
     52  C         -4.1850  -34.5170  -22.8070 C.2    80  ASN80       0.2621
     53  O         -4.0660  -35.7240  -22.9620 O.2    80  ASN80      -0.2715
     54  CB        -4.4950  -34.3800  -20.3810 C.3    80  ASN80       0.1195
     55  CG        -5.3990  -34.0410  -19.2280 C.2    80  ASN80       0.2630
     56  OD1       -5.9200  -32.9210  -19.1530 O.2    80  ASN80      -0.2716
     57  ND2       -5.5970  -35.0020  -18.3150 N.am   80  ASN80      -0.0877
     58  N         -3.5400  -33.6290  -23.5530 N.am   81  HIS81      -0.1959
     59  CA        -2.6110  -34.0610  -24.5940 C.3    81  HIS81       0.1787
     60  C         -1.2740  -34.1950  -23.8950 C.2    81  HIS81       0.2620
     61  O         -1.0280  -33.5140  -22.8920 O.2    81  HIS81      -0.2715
     62  CB        -2.4260  -32.9920  -25.6690 C.3    81  HIS81       0.0785
     63  CG        -3.5860  -32.8330  -26.5960 C.ar   81  HIS81       0.0821
     64  ND1       -3.4270  -32.5100  -27.9270 N.ar   81  HIS81      -0.2267
     65  CD2       -4.9200  -32.8830  -26.3780 C.ar   81  HIS81       0.1154
     66  CE1       -4.6130  -32.3640  -28.4870 C.ar   81  HIS81       0.1986
     67  NE2       -5.5350  -32.5860  -27.5700 N.ar   81  HIS81      -0.2212
     68  N         -0.4120  -35.0570  -24.4190 N.am   82  ARG82      -0.1977
     69  CA         0.9250  -35.1970  -23.8510 C.3    82  ARG82       0.1597
     70  C          1.5660  -33.8350  -24.1330 C.2    82  ARG82       0.2287
     71  O          1.3110  -33.2440  -25.1760 O.2    82  ARG82      -0.2864
     72  CB         1.7010  -36.3120  -24.5720 C.3    82  ARG82       0.0334
     73  CG         3.2170  -36.1500  -24.5710 C.3    82  ARG82       0.0492
     74  CD         3.9250  -37.4880  -24.7110 C.3    82  ARG82       0.2205
     75  NE         5.3790  -37.3420  -24.6850 N.pl3  82  ARG82      -0.0865
     76  CZ         6.2190  -38.1420  -25.3360 C.cat  82  ARG82       0.5346
     77  NH1        5.7450  -39.1430  -26.0630 N.pl3  82  ARG82       0.1354
     78  NH2        7.5290  -37.9430  -25.2680 N.pl3  82  ARG82       0.1354
     79  N         -1.5320  -34.6980  -31.5610 N.3    89  PRO89      -0.2116
     80  CA        -1.7450  -36.1460  -31.4570 C.3    89  PRO89       0.1372
     81  C         -1.4860  -36.9020  -32.7510 C.2    89  PRO89       0.2244
     82  O         -2.4280  -37.3120  -33.4310 O.2    89  PRO89      -0.2868
     83  CB        -3.1950  -36.2690  -31.0050 C.3    89  PRO89       0.0268
     84  CG        -3.8590  -35.0170  -31.5080 C.3    89  PRO89       0.0207
     85  CD        -2.7970  -33.9550  -31.7030 C.3    89  PRO89       0.0892
     86  N         -0.3310  -39.7300  -32.9530 N.3    91  ASN91      -0.1225
     87  CA        -0.7910  -41.0810  -32.6870 C.3    91  ASN91       0.1785
     88  C         -2.2250  -41.2880  -33.1220 C.2    91  ASN91       0.2597
     89  O         -2.6080  -42.3910  -33.4990 O.2    91  ASN91      -0.2718
     90  CB        -0.5660  -41.4440  -31.1930 C.3    91  ASN91       0.1169
     91  CG        -1.5890  -40.8210  -30.2420 C.2    91  ASN91       0.2627
     92  OD1       -2.4910  -41.5030  -29.7640 O.2    91  ASN91      -0.2716
     93  ND2       -1.4280  -39.5370  -29.9370 N.am   91  ASN91      -0.0877
     94  N         -3.0020  -40.2150  -33.1340 N.am   92  LEU92      -0.1980
     95  CA        -4.4080  -40.3010  -33.5030 C.3    92  LEU92       0.1596
     96  C         -4.7360  -40.6490  -34.9530 C.2    92  LEU92       0.2287
     97  O         -5.6490  -41.4270  -35.2190 O.2    92  LEU92      -0.2864
     98  CB        -5.1050  -38.9900  -33.1580 C.3    92  LEU92       0.0297
     99  CG        -6.4720  -39.1430  -32.5060 C.3    92  LEU92       0.0022
    100  CD1       -6.2800  -39.4140  -31.0030 C.3    92  LEU92       0.0001
    101  CD2       -7.3090  -37.8830  -32.7770 C.3    92  LEU92       0.0001
    102  N          2.5000  -43.6760  -29.9820 N.3   101  MET101     -0.1231
    103  CA         1.3690  -43.4880  -29.1030 C.3   101  MET101      0.1687
    104  C          1.9760  -43.2820  -27.7070 C.2   101  MET101      0.2434
    105  O          3.0110  -43.8650  -27.3830 O.2   101  MET101     -0.2733
    106  CB         0.4730  -44.7150  -29.1770 C.3   101  MET101      0.0400
    107  CG        -0.0530  -45.1910  -27.8740 C.3   101  MET101      0.0596
    108  SD        -1.3480  -46.3480  -28.2160 S.3   101  MET101     -0.1393
    109  CE        -2.6630  -45.2050  -28.7440 C.3   101  MET101      0.0692
    110  N          1.3420  -42.4480  -26.8670 N.am  102  PRO102     -0.2729
    111  CA         1.8370  -42.1680  -25.5110 C.3   102  PRO102      0.1401
    112  C          1.8840  -43.3530  -24.5620 C.2   102  PRO102      0.2269
    113  O          1.0900  -44.2870  -24.6690 O.2   102  PRO102     -0.2865
    114  CB         0.8860  -41.1020  -24.9730 C.3   102  PRO102      0.0296
    115  CG         0.0030  -40.7230  -26.0820 C.3   102  PRO102      0.0237
    116  CD         0.0760  -41.7540  -27.1520 C.3   102  PRO102      0.0939
    117  N          1.2420  -44.5900  -20.8750 N.3   104  LEU104     -0.1245
    118  CA         0.4380  -44.1230  -19.7490 C.3   104  LEU104      0.1561
    119  C          1.1780  -43.1370  -18.8440 C.2   104  LEU104      0.2260
    120  O          0.6190  -42.1150  -18.4470 O.2   104  LEU104     -0.2867
    121  CB        -0.0750  -45.3120  -18.9340 C.3   104  LEU104      0.0270
    122  CG        -0.9470  -46.2650  -19.7650 C.3   104  LEU104      0.0019
    123  CD1       -1.2750  -47.5090  -18.9560 C.3   104  LEU104      0.0001
    124  CD2       -2.2210  -45.5600  -20.2010 C.3   104  LEU104      0.0001
    125  N          1.3130  -39.4600  -20.1140 N.3   107  LEU107     -0.1245
    126  CA         0.0820  -38.7040  -20.2000 C.3   107  LEU107      0.1561
    127  C         -0.3230  -38.0630  -18.8770 C.2   107  LEU107      0.2260
    128  O         -0.5670  -38.7640  -17.8960 O.2   107  LEU107     -0.2867
    129  CB        -1.0600  -39.6100  -20.6750 C.3   107  LEU107      0.0270
    130  CG        -1.2080  -39.8870  -22.1760 C.3   107  LEU107      0.0019
    131  CD1       -2.4100  -40.7930  -22.4140 C.3   107  LEU107      0.0001
    132  CD2       -1.3560  -38.5810  -22.9370 C.3   107  LEU107      0.0001
@<TRIPOS>BOND
     1    97    96    2
     2    96    95    1
     3    95    98    1
     4    95    94    1
     5    89    88    2
     6    82    81    2
     7    98    99    1
     8    94    88   am
     9    88    87    1
    10    86    87    1
    11   101    99    1
    12    81    80    1
    13    87    90    1
    14    99   100    1
    15    85    79    1
    16    85    84    1
    17    79    80    1
    18    84    83    1
    19    80    83    1
    20    90    91    1
    21    91    93   am
    22    91    92    2
    23   102   103    1
    24   106   103    1
    25   106   107    1
    26   103   104    1
    27   109   108    1
    28    66    64   ar
    29    66    67   ar
    30   108   107    1
    31    64    63   ar
    32   104   105    2
    33   104   110   am
    34    67    65   ar
    35   116   110    1
    36   116   115    1
    37   110   111    1
    38    63    65   ar
    39    63    62    1
    40   115   114    1
    41    77    76    1
    42    12    11    1
    43    62    59    1
    44   111   114    1
    45   111   112    1
    46    24    23    1
    47    76    78    1
    48    76    75    2
    49    10    11   ar
    50    10     8   ar
    51    71    70    2
    52    11     9   ar
    53    74    75    1
    54    74    73    1
    55   113   112    2
    56    59    60    1
    57    59    58    1
    58    72    73    1
    59    72    69    1
    60    68    60   am
    61    68    69    1
    62    23    22   ar
    63    23    21   ar
    64     8     6   ar
    65    70    69    1
    66    22    20   ar
    67    60    61    2
    68    21    19   ar
    69     9     7   ar
    70    58    52   am
    71    44    43    2
    72    48    47    2
    73    53    52    2
    74   132   130    1
    75    20    18   ar
    76     6     7   ar
    77     6     5    1
    78    52    51    1
    79    19    18   ar
    80    47    46    1
    81    47    50   am
    82    46    49    1
    83    46    45    1
    84   131   130    1
    85    18    17    1
    86    43    45   am
    87    43    42    1
    88   130   129    1
    89    32    30    1
    90    50    51    1
    91    51    54    1
    92     5     2    1
    93     2     1    1
    94     2     3    1
    95    42    41    1
    96    31    29    1
    97    17    14    1
    98   117   118    1
    99   129   126    1
   100    30    29    1
   101    29    26    1
   102     3     4    2
   103    54    55    1
   104   124   122    1
   105   126   125    1
   106   126   127    1
   107    14    13    1
   108    14    15    1
   109    40    38    1
   110   122   123    1
   111   122   121    1
   112   118   121    1
   113   118   119    1
   114    39    38    1
   115    38    37    1
   116    55    56    2
   117    55    57   am
   118    26    25    1
   119    26    27    1
   120    15    16    2
   121   127   128    2
   122   119   120    2
   123    27    33   am
   124    27    28    2
   125    33    34    1
   126    37    34    1
   127    34    35    1
   128    35    36    2
