@<TRIPOS>MOLECULE
tmp/1khtC00.pdb
 162 152 0 0 0
SMALL
GASTEIGER

@<TRIPOS>ATOM
      1  N         -8.9890   50.4650  116.6900 N.3    11  PRO11      -0.2116
      2  CA        -9.9180   49.3510  116.4740 C.3    11  PRO11       0.1372
      3  C         -9.9740   48.9830  114.9980 C.2    11  PRO11       0.2244
      4  O        -10.0670   49.8590  114.1370 O.2    11  PRO11      -0.2868
      5  CB       -11.2440   49.9090  116.9880 C.3    11  PRO11       0.0268
      6  CG       -10.7910   50.8060  118.1250 C.3    11  PRO11       0.0207
      7  CD        -9.6120   51.5320  117.4970 C.3    11  PRO11       0.0892
      8  N         -4.4070   43.1060  118.0580 N.3    16  THR16      -0.1218
      9  CA        -4.5710   41.9330  118.9110 C.3    16  THR16       0.1862
     10  C         -4.4060   40.6220  118.1200 C.2    16  THR16       0.2287
     11  O         -3.6430   39.7440  118.5130 O.2    16  THR16      -0.2866
     12  CB        -5.9660   41.9210  119.5690 C.3    16  THR16       0.1770
     13  OG1       -6.1450   43.1170  120.3380 O.3    16  THR16      -0.2211
     14  CG2       -6.1130   40.7040  120.4790 C.3    16  THR16       0.0375
     15  N         -5.1940   41.6840  128.5970 N.3    37  SER37      -0.1202
     16  CA        -5.9390   42.7710  127.9820 C.3    37  SER37       0.2020
     17  C         -6.2690   43.8550  128.9870 C.2    37  SER37       0.2619
     18  O         -7.0400   43.6410  129.9150 O.2    37  SER37      -0.2717
     19  CB        -7.2380   42.2400  127.3680 C.3    37  SER37       0.2103
     20  OG        -8.0830   43.2980  126.9450 O.3    37  SER37      -0.2182
     21  N         -5.6770   45.0230  128.8020 N.am   38  PHE38      -0.1961
     22  CA        -5.9380   46.1360  129.6910 C.3    38  PHE38       0.1771
     23  C         -7.4380   46.4160  129.5720 C.2    38  PHE38       0.2620
     24  O         -8.0910   46.8240  130.5330 O.2    38  PHE38      -0.2715
     25  CB        -5.1150   47.3390  129.2360 C.3    38  PHE38       0.0574
     26  CG        -5.0020   48.4260  130.2590 C.ar   38  PHE38      -0.0200
     27  CD1       -6.0890   49.2420  130.5580 C.ar   38  PHE38      -0.0042
     28  CD2       -3.7980   48.6460  130.9190 C.ar   38  PHE38      -0.0042
     29  CE1       -5.9740   50.2680  131.4990 C.ar   38  PHE38      -0.0003
     30  CE2       -3.6710   49.6680  131.8620 C.ar   38  PHE38      -0.0003
     31  CZ        -4.7610   50.4790  132.1500 C.ar   38  PHE38      -0.0000
     32  N         -7.9720   46.1670  128.3770 N.am   39  GLY39      -0.1954
     33  CA        -9.3840   46.3810  128.1060 C.3    39  GLY39       0.1869
     34  C        -10.2890   45.4210  128.8540 C.2    39  GLY39       0.2309
     35  O        -11.5100   45.5790  128.8570 O.2    39  GLY39      -0.2863
     36  N         -9.7990   46.3740  132.6940 N.3    42  MET42      -0.1245
     37  CA       -10.5270   47.6370  132.7490 C.3    42  MET42       0.1570
     38  C        -11.8660   47.4540  132.0330 C.2    42  MET42       0.2261
     39  O        -12.1030   48.0260  130.9650 O.2    42  MET42      -0.2867
     40  CB        -9.7260   48.7540  132.0700 C.3    42  MET42       0.0387
     41  CG       -10.2740   50.1530  132.3240 C.3    42  MET42       0.0595
     42  SD        -9.6590   51.4000  131.1690 S.3    42  MET42      -0.1393
     43  CE       -11.2130   52.1440  130.6010 C.3    42  MET42       0.0692
     44  N        -18.8180   46.5760  126.4230 N.3    55  ARG55      -0.1231
     45  CA       -17.4240   47.0040  126.3100 C.3    55  ARG55       0.1694
     46  C        -17.1730   48.2010  125.3830 C.2    55  ARG55       0.2592
     47  O        -16.2400   48.9760  125.6080 O.2    55  ARG55      -0.2718
     48  CB       -16.5710   45.8150  125.8520 C.3    55  ARG55       0.0321
     49  CG       -15.0740   46.0450  125.9270 C.3    55  ARG55       0.0489
     50  CD       -14.3070   44.8120  125.4760 C.3    55  ARG55       0.2205
     51  NE       -12.8880   44.9040  125.8080 N.pl3  55  ARG55      -0.0865
     52  CZ       -12.0030   43.9390  125.5810 C.cat  55  ARG55       0.5346
     53  NH1      -12.3890   42.8030  125.0170 N.pl3  55  ARG55       0.1354
     54  NH2      -10.7330   44.1050  125.9270 N.pl3  55  ARG55       0.1354
     55  N        -18.0020   48.3490  124.3510 N.am   56  ASP56      -0.1974
     56  CA       -17.8540   49.4390  123.3840 C.3    56  ASP56       0.1709
     57  C        -18.5740   50.7410  123.7320 C.2    56  ASP56       0.2293
     58  O        -19.2760   51.3180  122.8990 O.2    56  ASP56      -0.2864
     59  CB       -18.2980   48.9750  121.9910 C.3    56  ASP56       0.1436
     60  CG       -17.1940   48.2520  121.2350 C.2    56  ASP56       0.3671
     61  OD1      -17.4810   47.6980  120.1520 O.co2  56  ASP56      -0.2456
     62  OD2      -16.0400   48.2450  121.7200 O.co2  56  ASP56      -0.2456
     63  N        -17.1950   52.3350  127.0210 N.3    58  MET58      -0.1230
     64  CA       -16.4410   52.7040  128.2150 C.3    58  MET58       0.1702
     65  C        -15.7610   54.0460  127.9640 C.2    58  MET58       0.2592
     66  O        -15.5700   54.8480  128.8820 O.2    58  MET58      -0.2718
     67  CB       -15.3670   51.6610  128.5190 C.3    58  MET58       0.0401
     68  CG       -15.8900   50.2880  128.8720 C.3    58  MET58       0.0596
     69  SD       -14.5450   49.2680  129.4800 S.3    58  MET58      -0.1393
     70  CE       -14.2560   50.0530  131.0680 C.3    58  MET58       0.0692
     71  N        -15.3930   54.2690  126.7070 N.am   59  ARG59      -0.1980
     72  CA       -14.7330   55.4970  126.2890 C.3    59  ARG59       0.1597
     73  C        -15.7390   56.6410  126.1760 C.2    59  ARG59       0.2287
     74  O        -15.4610   57.6640  125.5500 O.2    59  ARG59      -0.2864
     75  CB       -14.0510   55.2740  124.9370 C.3    59  ARG59       0.0334
     76  CG       -15.0090   54.8900  123.8090 C.3    59  ARG59       0.0492
     77  CD       -14.2560   54.6300  122.5110 C.3    59  ARG59       0.2205
     78  NE       -15.1450   54.4290  121.3690 N.pl3  59  ARG59      -0.0865
     79  CZ       -16.0000   53.4190  121.2450 C.cat  59  ARG59       0.5346
     80  NH1      -16.0940   52.5010  122.1970 N.pl3  59  ARG59       0.1354
     81  NH2      -16.7590   53.3250  120.1620 N.pl3  59  ARG59       0.1354
     82  N        -13.6650   57.0740  133.4140 N.3    66  GLN66      -0.1245
     83  CA       -12.8380   56.1250  132.6700 C.3    66  GLN66       0.1566
     84  C        -11.3460   56.3130  132.9440 C.2    66  GLN66       0.2260
     85  O        -10.5510   55.3900  132.7550 O.2    66  GLN66      -0.2867
     86  CB       -13.1290   56.2120  131.1590 C.3    66  GLN66       0.0367
     87  CG       -13.0730   57.6040  130.5410 C.3    66  GLN66       0.0905
     88  CD       -13.4710   57.6010  129.0670 C.2    66  GLN66       0.2608
     89  OE1      -12.8230   56.9610  128.2370 O.2    66  GLN66      -0.2717
     90  NE2      -14.5430   58.3150  128.7400 N.am   66  GLN66      -0.0878
     91  N         -9.1090   53.4320  134.8880 N.3    70  GLN70      -0.1245
     92  CA        -7.8740   53.1700  134.1510 C.3    70  GLN70       0.1566
     93  C         -6.6980   53.0190  135.1210 C.2    70  GLN70       0.2260
     94  O         -5.9390   52.0520  135.0480 O.2    70  GLN70      -0.2867
     95  CB        -7.5930   54.3280  133.1870 C.3    70  GLN70       0.0367
     96  CG        -6.3570   54.1490  132.3170 C.3    70  GLN70       0.0905
     97  CD        -6.0130   55.3950  131.5150 C.2    70  GLN70       0.2608
     98  OE1       -5.1630   55.3570  130.6270 O.2    70  GLN70      -0.2717
     99  NE2       -6.6670   56.5080  131.8320 N.am   70  GLN70      -0.0878
    100  N         -2.2070   44.2850  125.9090 N.3    89  ASP89      -0.1225
    101  CA        -3.0340   44.6910  124.7900 C.3    89  ASP89       0.1805
    102  C         -3.8560   45.9010  125.2220 C.2    89  ASP89       0.2598
    103  O         -4.8110   45.7690  125.9890 O.2    89  ASP89      -0.2718
    104  CB        -3.9600   43.5430  124.4090 C.3    89  ASP89       0.1424
    105  CG        -4.4790   43.6640  123.0080 C.2    89  ASP89       0.3668
    106  OD1       -3.6620   43.5410  122.0710 O.co2  89  ASP89      -0.2456
    107  OD2       -5.6960   43.8850  122.8410 O.co2  89  ASP89      -0.2456
    108  N         -3.4880   47.0800  124.7310 N.am   90  THR90      -0.1939
    109  CA        -4.1930   48.3020  125.1000 C.3    90  THR90       0.2028
    110  C         -4.1990   49.3280  123.9650 C.2    90  THR90       0.2642
    111  O         -4.0410   48.9740  122.8010 O.2    90  THR90      -0.2714
    112  CB        -3.5630   48.9170  126.3690 C.3    90  THR90       0.1808
    113  OG1       -4.2970   50.0830  126.7510 O.3    90  THR90      -0.2208
    114  CG2       -2.1070   49.2870  126.1250 C.3    90  THR90       0.0379
    115  N         -4.3770   50.6010  124.2980 N.am   91  HIS91      -0.1973
    116  CA        -4.4310   51.6450  123.2810 C.3    91  HIS91       0.1656
    117  C         -3.5300   52.8200  123.5830 C.2    91  HIS91       0.2291
    118  O         -3.4190   53.2330  124.7340 O.2    91  HIS91      -0.2864
    119  CB        -5.8670   52.1390  123.1400 C.3    91  HIS91       0.0771
    120  CG        -6.8130   51.0870  122.6600 C.ar   91  HIS91       0.0820
    121  ND1       -6.7540   50.5600  121.3880 N.ar   91  HIS91      -0.2267
    122  CD2       -7.8330   50.4540  123.2830 C.ar   91  HIS91       0.1154
    123  CE1       -7.7000   49.6480  121.2470 C.ar   91  HIS91       0.1986
    124  NE2       -8.3690   49.5650  122.3830 N.ar   91  HIS91      -0.2212
    125  N         -7.3500   56.6320  123.3040 N.3    94  VAL94      -0.1245
    126  CA        -8.6860   56.1390  122.9880 C.3    94  VAL94       0.1561
    127  C         -9.4740   57.3000  122.4210 C.2    94  VAL94       0.2260
    128  O         -9.4960   58.3890  122.9970 O.2    94  VAL94      -0.2867
    129  CB        -9.4140   55.6040  124.2360 C.3    94  VAL94       0.0252
    130  CG1      -10.7870   55.1130  123.8540 C.3    94  VAL94       0.0019
    131  CG2       -8.6190   54.4760  124.8570 C.3    94  VAL94       0.0019
    132  N         -7.8840   60.2380  124.5000 N.3   101  LEU101     -0.1245
    133  CA        -7.5130   59.9890  125.8810 C.3   101  LEU101      0.1561
    134  C         -6.2530   59.1350  125.9260 C.2   101  LEU101      0.2260
    135  O         -6.2460   58.0080  125.4440 O.2   101  LEU101     -0.2867
    136  CB        -8.6580   59.2530  126.5890 C.3   101  LEU101      0.0270
    137  CG        -8.4640   58.7840  128.0340 C.3   101  LEU101      0.0019
    138  CD1       -8.1370   59.9630  128.9210 C.3   101  LEU101      0.0001
    139  CD2       -9.7350   58.0970  128.5220 C.3   101  LEU101      0.0001
    140  N         -3.7250   56.4510  126.7410 N.3   103  GLY103     -0.1210
    141  CA        -3.9210   55.1530  127.3570 C.3   103  GLY103      0.1956
    142  C         -2.9060   54.8050  128.4230 C.2   103  GLY103      0.2611
    143  O         -3.1560   53.9290  129.2520 O.2   103  GLY103     -0.2717
    144  N         -1.7650   55.4850  128.4110 N.am  104  LEU104     -0.1979
    145  CA        -0.7250   55.2290  129.4010 C.3   104  LEU104      0.1596
    146  C         -0.2370   56.5310  130.0330 C.2   104  LEU104      0.2287
    147  O          0.9310   56.8980  129.8920 O.2   104  LEU104     -0.2864
    148  CB         0.4590   54.5100  128.7540 C.3   104  LEU104      0.0297
    149  CG         0.1650   53.1800  128.0600 C.3   104  LEU104      0.0022
    150  CD1        1.4480   52.6380  127.4410 C.3   104  LEU104      0.0001
    151  CD2       -0.4070   52.1960  129.0610 C.3   104  LEU104      0.0001
    152  N        -18.9130   44.1940  117.0350 N.3   137  ARG137     -0.1245
    153  CA       -18.3750   45.4190  117.6210 C.3   137  ARG137      0.1563
    154  C        -18.9270   46.6020  116.8230 C.2   137  ARG137      0.2260
    155  O        -19.2090   46.4770  115.6280 O.2   137  ARG137     -0.2867
    156  CB       -16.8420   45.4290  117.5480 C.3   137  ARG137      0.0307
    157  CG       -16.1370   44.4400  118.4740 C.3   137  ARG137      0.0489
    158  CD       -14.6360   44.4250  118.2000 C.3   137  ARG137      0.2205
    159  NE       -13.8880   43.6040  119.1500 N.pl3 137  ARG137     -0.0865
    160  CZ       -13.7000   43.9150  120.4310 C.cat 137  ARG137      0.5346
    161  NH1      -14.2080   45.0370  120.9290 N.pl3 137  ARG137      0.1354
    162  NH2      -13.0000   43.1040  121.2150 N.pl3 137  ARG137      0.1354
@<TRIPOS>BOND
     1     4     3    2
     2     3     2    1
     3   155   154    2
     4     2     1    1
     5     2     5    1
     6     1     7    1
     7   154   153    1
     8     5     6    1
     9   152   153    1
    10     7     6    1
    11   156   153    1
    12   156   157    1
    13     8     9    1
    14    10    11    2
    15    10     9    1
    16   158   157    1
    17   158   159    1
    18     9    12    1
    19   159   160    2
    20    12    13    1
    21    12    14    1
    22    61    60   ar
    23    81    79    1
    24   160   161    1
    25   160   162    1
    26    60    62   ar
    27    60    59    1
    28    79    78    2
    29    79    80    1
    30   123   121   ar
    31   123   124   ar
    32    78    77    1
    33   121   120   ar
    34    59    56    1
    35   106   105   ar
    36   124   122   ar
    37   127   126    1
    38   127   128    2
    39    77    76    1
    40   120   119    1
    41   120   122   ar
    42   111   110    2
    43   107   105   ar
    44    58    57    2
    45   126   125    1
    46   126   129    1
    47   105   104    1
    48   119   116    1
    49   116   117    1
    50   116   115    1
    51    56    57    1
    52    56    55    1
    53   117   118    2
    54    76    75    1
    55   130   129    1
    56   110   115   am
    57   110   109    1
    58   129   131    1
    59    55    46   am
    60   104   101    1
    61   132   133    1
    62   108   109    1
    63   108   102   am
    64   101   102    1
    65   101   100    1
    66    75    72    1
    67    53    52    1
    68   109   112    1
    69   102   103    2
    70    46    47    2
    71    46    45    1
    72   135   134    2
    73    50    51    1
    74    50    49    1
    75    74    73    2
    76    52    51    2
    77    52    54    1
    78    48    49    1
    79    48    45    1
    80   133   134    1
    81   133   136    1
    82   114   112    1
    83    73    72    1
    84    72    71    1
    85    45    44    1
    86   112   113    1
    87   136   137    1
    88    71    65   am
    89   140   141    1
    90    20    19    1
    91    63    64    1
    92   141   142    1
    93    19    16    1
    94   150   149    1
    95    65    64    1
    96    65    66    2
    97    16    15    1
    98    16    17    1
    99   137   139    1
   100   137   138    1
   101   149   148    1
   102   149   151    1
   103    33    32    1
   104    33    34    1
   105    64    67    1
   106    89    88    2
   107    32    23   am
   108   144   142   am
   109   144   145    1
   110   142   143    2
   111    67    68    1
   112    90    88   am
   113   148   145    1
   114    21    17   am
   115    21    22    1
   116    34    35    2
   117    68    69    1
   118    17    18    2
   119    88    87    1
   120    25    22    1
   121    25    26    1
   122   145   146    1
   123    69    70    1
   124    23    22    1
   125    23    24    2
   126   147   146    2
   127    26    27   ar
   128    26    28   ar
   129    87    86    1
   130    27    29   ar
   131    43    42    1
   132    98    97    2
   133    28    30   ar
   134    39    38    2
   135    86    83    1
   136    42    41    1
   137    29    31   ar
   138    97    99   am
   139    97    96    1
   140    30    31   ar
   141    38    37    1
   142    40    41    1
   143    40    37    1
   144    96    95    1
   145    83    84    1
   146    83    82    1
   147    36    37    1
   148    85    84    2
   149    95    92    1
   150    92    91    1
   151    92    93    1
   152    94    93    2
