@<TRIPOS>MOLECULE
tmp/1khzB00.pdb
 171 158 0 0 0
SMALL
GASTEIGER

@<TRIPOS>ATOM
      1  N         41.6020   33.0780   -1.3890 N.3    21  PHE21      -0.1227
      2  CA        41.0970   33.4940   -0.0810 C.3    21  PHE21       0.1736
      3  C         42.2710   33.3530    0.8920 C.2    21  PHE21       0.2595
      4  O         42.4740   34.1810    1.7760 O.2    21  PHE21      -0.2718
      5  CB        39.9450   32.5990    0.3720 C.3    21  PHE21       0.0547
      6  CG        39.3040   33.0580    1.6450 C.ar   21  PHE21      -0.0202
      7  CD1       38.4460   34.1450    1.6520 C.ar   21  PHE21      -0.0042
      8  CD2       39.6250   32.4590    2.8560 C.ar   21  PHE21      -0.0042
      9  CE1       37.9200   34.6350    2.8540 C.ar   21  PHE21      -0.0003
     10  CE2       39.1030   32.9460    4.0660 C.ar   21  PHE21      -0.0003
     11  CZ        38.2520   34.0340    4.0610 C.ar   21  PHE21      -0.0000
     12  N         43.0280   32.2730    0.7240 N.am   22  PHE22      -0.1976
     13  CA        44.2240   32.0030    1.5220 C.3    22  PHE22       0.1639
     14  C         45.3850   32.0480    0.5350 C.2    22  PHE22       0.2290
     15  O         45.1850   32.0570   -0.6810 O.2    22  PHE22      -0.2864
     16  CB        44.2070   30.5940    2.1330 C.3    22  PHE22       0.0560
     17  CG        43.0700   30.3400    3.0690 C.ar   22  PHE22      -0.0200
     18  CD1       42.7030   31.2820    4.0150 C.ar   22  PHE22      -0.0042
     19  CD2       42.3840   29.1410    3.0220 C.ar   22  PHE22      -0.0042
     20  CE1       41.6620   31.0340    4.9060 C.ar   22  PHE22      -0.0003
     21  CE2       41.3380   28.8800    3.9160 C.ar   22  PHE22      -0.0003
     22  CZ        40.9790   29.8290    4.8560 C.ar   22  PHE22      -0.0000
     23  N         47.3120   31.6990    6.1630 N.3    49  ARG49      -0.1245
     24  CA        45.8830   31.9830    6.2760 C.3    49  ARG49       0.1563
     25  C         45.5220   33.0120    7.3550 C.2    49  ARG49       0.2260
     26  O         44.3480   33.1750    7.7070 O.2    49  ARG49      -0.2867
     27  CB        45.1300   30.6640    6.5130 C.3    49  ARG49       0.0307
     28  CG        45.3480   30.0610    7.8890 C.3    49  ARG49       0.0489
     29  CD        44.1220   30.3290    8.7470 C.3    49  ARG49       0.2205
     30  NE        43.1350   29.2730    8.5890 N.pl3  49  ARG49      -0.0865
     31  CZ        41.8190   29.4380    8.6640 C.cat  49  ARG49       0.5346
     32  NH1       41.2840   30.6330    8.8880 N.pl3  49  ARG49       0.1354
     33  NH2       41.0340   28.3830    8.5370 N.pl3  49  ARG49       0.1354
     34  N         44.2230   33.6310   14.2660 N.3    52  ALA52      -0.1245
     35  CA        42.8990   33.5290   14.8570 C.3    52  ALA52       0.1562
     36  C         42.8190   33.8970   16.3300 C.2    52  ALA52       0.2260
     37  O         43.7970   33.8060   17.0840 O.2    52  ALA52      -0.2867
     38  CB        42.3440   32.0910   14.6450 C.3    52  ALA52       0.0290
     39  N         40.5300   32.9220   19.5830 N.3    54  VAL54      -0.1245
     40  CA        39.6350   31.8610   20.0300 C.3    54  VAL54       0.1561
     41  C         39.0590   32.1880   21.3970 C.2    54  VAL54       0.2260
     42  O         39.7820   32.6260   22.2890 O.2    54  VAL54      -0.2867
     43  CB        40.3990   30.5120   20.1200 C.3    54  VAL54       0.0252
     44  CG1       39.4670   29.4160   20.6710 C.3    54  VAL54       0.0019
     45  CG2       40.9550   30.1280   18.7350 C.3    54  VAL54       0.0019
     46  N         29.0870   23.7840   13.7920 N.3    70  GLN70      -0.1245
     47  CA        29.0820   24.2790   12.4180 C.3    70  GLN70       0.1566
     48  C         29.8860   23.3040   11.5730 C.2    70  GLN70       0.2260
     49  O         30.7590   22.6000   12.0860 O.2    70  GLN70      -0.2867
     50  CB        29.6940   25.6780   12.3180 C.3    70  GLN70       0.0367
     51  CG        31.2110   25.7180   12.3330 C.3    70  GLN70       0.0905
     52  CD        31.7400   27.1400   12.3760 C.2    70  GLN70       0.2608
     53  OE1       31.5480   27.9240   11.4440 O.2    70  GLN70      -0.2717
     54  NE2       32.3980   27.4840   13.4710 N.am   70  GLN70      -0.0878
     55  N         32.6350   21.9770    8.9780 N.3    72  ARG72      -0.1231
     56  CA        34.0070   22.2580    8.5530 C.3    72  ARG72       0.1694
     57  C         34.2920   21.1330    7.5590 C.2    72  ARG72       0.2591
     58  O         34.6630   20.0330    7.9460 O.2    72  ARG72      -0.2718
     59  CB        34.9710   22.1710    9.7350 C.3    72  ARG72       0.0321
     60  CG        34.7000   23.1890   10.8420 C.3    72  ARG72       0.0489
     61  CD        34.9450   24.6120   10.3610 C.3    72  ARG72       0.2205
     62  NE        35.0690   25.5310   11.4870 N.pl3  72  ARG72      -0.0865
     63  CZ        35.3590   26.8220   11.3760 C.cat  72  ARG72       0.5346
     64  NH1       35.5520   27.3640   10.1810 N.pl3  72  ARG72       0.1354
     65  NH2       35.4800   27.5680   12.4640 N.pl3  72  ARG72       0.1354
     66  N         34.0970   21.4220    6.2780 N.am   73  ILE73      -0.1980
     67  CA        34.2610   20.4340    5.2250 C.3    73  ILE73       0.1595
     68  C         35.6450   19.7810    5.1510 C.2    73  ILE73       0.2287
     69  O         35.7620   18.6400    4.7110 O.2    73  ILE73      -0.2864
     70  CB        33.8500   21.0540    3.8580 C.3    73  ILE73       0.0276
     71  CG1       33.4310   19.9500    2.8820 C.3    73  ILE73       0.0022
     72  CG2       34.9620   21.9250    3.3130 C.3    73  ILE73       0.0022
     73  CD1       32.0960   19.2770    3.2300 C.3    73  ILE73       0.0001
     74  N         32.9190   23.2070   18.5460 N.3    86  GLU86      -0.1245
     75  CA        34.1120   24.0280   18.7110 C.3    86  GLU86       0.1567
     76  C         33.9390   25.2110   19.6430 C.2    86  GLU86       0.2260
     77  O         32.8960   25.3940   20.2610 O.2    86  GLU86      -0.2867
     78  CB        34.5660   24.5810   17.3540 C.3    86  GLU86       0.0388
     79  CG        34.7640   23.5690   16.2470 C.3    86  GLU86       0.1160
     80  CD        35.1730   24.2310   14.9230 C.2    86  GLU86       0.3649
     81  OE1       34.3490   24.9880   14.3640 O.co2  86  GLU86      -0.2457
     82  OE2       36.3160   24.0070   14.4380 O.co2  86  GLU86      -0.2457
     83  N         35.4620   31.3470   17.4070 N.3    89  ALA89      -0.1231
     84  CA        36.7570   31.6310   16.7820 C.3    89  ALA89       0.1694
     85  C         36.6190   32.5010   15.5390 C.2    89  ALA89       0.2593
     86  O         35.7630   32.2600   14.6810 O.2    89  ALA89      -0.2718
     87  CB        37.4800   30.3120   16.4200 C.3    89  ALA89       0.0304
     88  N         37.4790   33.5030   15.4360 N.am   90  GLY90      -0.1942
     89  CA        37.4030   34.3800   14.2990 C.3    90  GLY90       0.2014
     90  C         38.7650   34.7650   13.8030 C.2    90  GLY90       0.2638
     91  O         39.7600   34.6200   14.5120 O.2    90  GLY90      -0.2714
     92  N         38.8060   35.2590   12.5730 N.am   91  MET91      -0.1976
     93  CA        40.0440   35.7000   11.9740 C.3    91  MET91       0.1605
     94  C         40.2990   37.1380   12.3960 C.2    91  MET91       0.2287
     95  O         39.4230   38.0030   12.2960 O.2    91  MET91      -0.2864
     96  CB        39.9660   35.5990   10.4500 C.3    91  MET91       0.0413
     97  CG        41.2970   35.8650    9.7640 C.3    91  MET91       0.0598
     98  SD        41.2920   35.4030    8.0180 S.3    91  MET91      -0.1393
     99  CE        41.3990   33.5660    8.1410 C.3    91  MET91       0.0692
    100  N         33.3220   38.1440   17.8440 N.3   105  GLU105     -0.1245
    101  CA        32.8820   36.8670   17.3000 C.3   105  GLU105      0.1567
    102  C         31.9330   36.1300   18.2500 C.2   105  GLU105      0.2260
    103  O         31.0890   35.3610   17.7980 O.2   105  GLU105     -0.2867
    104  CB        34.0930   35.9760   16.9750 C.3   105  GLU105      0.0388
    105  CG        35.0550   36.5270   15.9140 C.3   105  GLU105      0.1160
    106  CD        34.6810   36.1570   14.4800 C.2   105  GLU105      0.3649
    107  OE1       33.8870   35.2170   14.2710 O.co2 105  GLU105     -0.2457
    108  OE2       35.2100   36.7970   13.5480 O.co2 105  GLU105     -0.2457
    109  N         28.9560   34.7460   16.5160 N.3   109  GLU109     -0.1245
    110  CA        28.7900   33.3010   16.4040 C.3   109  GLU109      0.1567
    111  C         27.9120   32.6150   17.4190 C.2   109  GLU109      0.2260
    112  O         27.3920   31.5270   17.1530 O.2   109  GLU109     -0.2867
    113  CB        30.1630   32.6300   16.4030 C.3   109  GLU109      0.0388
    114  CG        31.1620   33.3290   15.4950 C.3   109  GLU109      0.1160
    115  CD        32.3280   32.4600   15.1150 C.2   109  GLU109      0.3649
    116  OE1       32.7030   31.5870   15.9080 O.co2 109  GLU109     -0.2457
    117  OE2       32.8900   32.6590   14.0210 O.co2 109  GLU109     -0.2457
    118  N         49.8930   29.8510   10.7400 N.3   132  GLU132     -0.1245
    119  CA        48.8080   30.2110   11.6470 C.3   132  GLU132      0.1567
    120  C         49.0600   30.1140   13.1450 C.2   132  GLU132      0.2260
    121  O         49.5450   29.1090   13.6620 O.2   132  GLU132     -0.2867
    122  CB        47.5260   29.4250   11.3360 C.3   132  GLU132      0.0388
    123  CG        46.3670   29.8590   12.2430 C.3   132  GLU132      0.1160
    124  CD        45.0830   29.0970   12.0050 C.2   132  GLU132      0.3649
    125  OE1       45.1270   27.8520   12.0320 O.co2 132  GLU132     -0.2457
    126  OE2       44.0310   29.7450   11.8030 O.co2 132  GLU132     -0.2457
    127  N         46.9400   30.7930   16.8060 N.3   134  SER134     -0.1217
    128  CA        45.6090   30.9630   17.3920 C.3   134  SER134      0.1889
    129  C         45.7740   31.3670   18.8390 C.2   134  SER134      0.2288
    130  O         46.4720   30.6730   19.5810 O.2   134  SER134     -0.2866
    131  CB        44.8220   29.6560   17.3340 C.3   134  SER134      0.2089
    132  OG        44.6690   29.2240   15.9940 O.3   134  SER134     -0.2183
    133  N         28.7490   36.2590    5.5070 N.3   155  GLU155     -0.1231
    134  CA        29.8670   35.3190    5.4460 C.3   155  GLU155      0.1699
    135  C         29.2680   33.9500    5.1880 C.2   155  GLU155      0.2592
    136  O         29.9570   33.0150    4.7780 O.2   155  GLU155     -0.2718
    137  CB        30.5930   35.2530    6.7860 C.3   155  GLU155      0.0402
    138  CG        31.6600   36.2830    7.0220 C.3   155  GLU155      0.1161
    139  CD        32.2300   36.1690    8.4190 C.2   155  GLU155      0.3649
    140  OE1       32.1820   35.0560    8.9810 O.co2 155  GLU155     -0.2457
    141  OE2       32.7270   37.1820    8.9540 O.co2 155  GLU155     -0.2457
    142  N         27.9720   33.8440    5.4570 N.am  156  ASN156     -0.1960
    143  CA        27.2470   32.5950    5.3080 C.3   156  ASN156      0.1819
    144  C         27.6770   31.5930    6.3780 C.2   156  ASN156      0.2621
    145  O         28.0750   30.4600    6.0740 O.2   156  ASN156     -0.2715
    146  CB        27.4410   32.0110    3.9030 C.3   156  ASN156      0.1195
    147  CG        26.7660   32.8560    2.8270 C.2   156  ASN156      0.2630
    148  OD1       25.5760   33.1830    2.9300 O.2   156  ASN156     -0.2716
    149  ND2       27.5210   33.2120    1.7890 N.am  156  ASN156     -0.0877
    150  N         27.6110   32.0470    7.6310 N.am  157  GLU157     -0.1977
    151  CA        27.9260   31.2250    8.7950 C.3   157  GLU157      0.1602
    152  C         26.6070   30.6800    9.3310 C.2   157  GLU157      0.2287
    153  O         25.6630   31.4350    9.5730 O.2   157  GLU157     -0.2864
    154  CB        28.5660   32.0470    9.9120 C.3   157  GLU157      0.0415
    155  CG        30.0060   32.4370    9.7120 C.3   157  GLU157      0.1163
    156  CD        30.5310   33.2230   10.9010 C.2   157  GLU157      0.3649
    157  OE1       29.8050   34.1350   11.3660 O.co2 157  GLU157     -0.2457
    158  OE2       31.6590   32.9380   11.3650 O.co2 157  GLU157     -0.2457
    159  N         39.1760   19.3300   17.5830 N.3   180  ASN180     -0.1240
    160  CA        39.8840   20.3140   16.7890 C.3   180  ASN180      0.1653
    161  C         40.8530   20.8890   17.8160 C.2   180  ASN180      0.2266
    162  O         40.4800   21.0100   18.9700 O.2   180  ASN180     -0.2867
    163  CB        38.8950   21.3480   16.2570 C.3   180  ASN180      0.1155
    164  CG        38.0310   21.9370   17.3400 C.2   180  ASN180      0.2627
    165  OD1       38.3750   22.9680   17.9220 O.2   180  ASN180     -0.2716
    166  ND2       36.9070   21.2800   17.6320 N.am  180  ASN180     -0.0877
    167  N         42.2370   23.9620   18.9070 N.3   182  ALA182     -0.1245
    168  CA        41.8390   25.0540   19.8000 C.3   182  ALA182      0.1562
    169  C         40.9030   24.5970   20.9360 C.2   182  ALA182      0.2260
    170  O         41.0840   24.9840   22.0970 O.2   182  ALA182     -0.2867
    171  CB        41.1670   26.1570   18.9890 C.3   182  ALA182      0.0290
@<TRIPOS>BOND
     1     1     2    1
     2    15    14    2
     3     2     5    1
     4     2     3    1
     5     5     6    1
     6    14    13    1
     7    12     3   am
     8    12    13    1
     9     3     4    2
    10    13    16    1
    11     6     7   ar
    12     6     8   ar
    13     7     9   ar
    14   149   147   am
    15    16    17    1
    16   147   148    2
    17   147   146    1
    18     9    11   ar
    19     8    10   ar
    20    71    73    1
    21    71    70    1
    22    19    17   ar
    23    19    21   ar
    24    17    18   ar
    25    72    70    1
    26    70    67    1
    27   146   143    1
    28    21    22   ar
    29    18    20   ar
    30    11    10   ar
    31    69    68    2
    32   136   135    2
    33    22    20   ar
    34    68    67    1
    35   135   134    1
    36   135   142   am
    37    67    66    1
    38   143   142    1
    39   143   144    1
    40   134   133    1
    41   134   137    1
    42   145   144    2
    43    23    24    1
    44    24    27    1
    45    24    25    1
    46    66    57   am
    47   144   150   am
    48    27    28    1
    49   137   138    1
    50   138   139    1
    51    25    26    2
    52    57    58    2
    53    57    56    1
    54   150   151    1
    55    28    29    1
    56    98    99    1
    57    98    97    1
    58   139   141   ar
    59   139   140   ar
    60    33    31    1
    61    56    55    1
    62    56    59    1
    63    30    31    2
    64    30    29    1
    65    31    32    1
    66   151   152    1
    67   151   154    1
    68   152   153    2
    69   155   154    1
    70   155   156    1
    71    59    60    1
    72    97    96    1
    73    64    63    1
    74    61    60    1
    75    61    62    1
    76    96    93    1
    77   118   119    1
    78   156   158   ar
    79   156   157   ar
    80   122   119    1
    81   122   123    1
    82    63    62    2
    83    63    65    1
    84    53    52    2
    85    48    49    2
    86    48    47    1
    87   119   120    1
    88   126   124   ar
    89    93    94    1
    90    93    92    1
    91   124   125   ar
    92   124   123    1
    93    95    94    2
    94    50    51    1
    95    50    47    1
    96    51    52    1
    97    52    54   am
    98    47    46    1
    99    92    90   am
   100   120   121    2
   101   108   106   ar
   102    90    89    1
   103    90    91    2
   104   117   115   ar
   105    34    35    1
   106   107   106   ar
   107    89    88    1
   108    81    80   ar
   109    82    80   ar
   110   106   105    1
   111    38    35    1
   112    86    85    2
   113    35    36    1
   114    80    79    1
   115   115   114    1
   116   115   116   ar
   117    88    85   am
   118   114   113    1
   119    85    84    1
   120   105   104    1
   121   132   131    1
   122    79    78    1
   123   163   160    1
   124   163   164    1
   125    36    37    2
   126   113   110    1
   127   110   109    1
   128   110   111    1
   129    87    84    1
   130    84    83    1
   131   160   159    1
   132   160   161    1
   133   127   128    1
   134   104   101    1
   135   112   111    2
   136   101   100    1
   137   101   102    1
   138   131   128    1
   139   164   166   am
   140   164   165    2
   141    78    75    1
   142   128   129    1
   143   103   102    2
   144   161   162    2
   145    74    75    1
   146    75    76    1
   147    45    43    1
   148   129   130    2
   149   167   168    1
   150   171   168    1
   151    39    40    1
   152    76    77    2
   153   168   169    1
   154    40    43    1
   155    40    41    1
   156    43    44    1
   157   169   170    2
   158    41    42    2
