@<TRIPOS>MOLECULE
tmp/1ki2B00.pdb
 153 143 0 0 0
SMALL
GASTEIGER

@<TRIPOS>ATOM
      1  N         16.8850   98.1880   39.1030 N.3    13  HIS13      -0.1241
      2  CA        15.8780   98.4130   40.1130 C.3    13  HIS13       0.1621
      3  C         14.9630   99.5450   39.6020 C.2    13  HIS13       0.2264
      4  O         15.4060  100.3800   38.7940 O.2    13  HIS13      -0.2867
      5  CB        16.5610   98.8400   41.4250 C.3    13  HIS13       0.0745
      6  CG        17.5020  100.0080   41.2800 C.ar   13  HIS13       0.0817
      7  ND1       17.7820  100.8710   42.3180 N.ar   13  HIS13      -0.2268
      8  CD2       18.2050  100.4690   40.2180 C.ar   13  HIS13       0.1154
      9  CE1       18.6040  101.8150   41.9030 C.ar   13  HIS13       0.1986
     10  NE2       18.8780  101.5930   40.6320 N.ar   13  HIS13      -0.2212
     11  N         12.7960   88.7680   47.2540 N.3    35  GLU35      -0.1245
     12  CA        14.0220   89.5150   47.4230 C.3    35  GLU35       0.1567
     13  C         14.3020   89.4400   48.9150 C.2    35  GLU35       0.2260
     14  O         13.5100   89.9440   49.7210 O.2    35  GLU35      -0.2867
     15  CB        13.7760   90.9540   47.0000 C.3    35  GLU35       0.0388
     16  CG        15.0180   91.6930   46.6660 C.3    35  GLU35       0.1160
     17  CD        14.7330   93.0400   46.0550 C.2    35  GLU35       0.3649
     18  OE1       14.0690   93.8770   46.7250 O.co2  35  GLU35      -0.2457
     19  OE2       15.1640   93.2400   44.8960 O.co2  35  GLU35      -0.2457
     20  N         15.1080   90.8710   51.3580 N.3    37  MET37      -0.1245
     21  CA        15.2880   92.1740   51.9560 C.3    37  MET37       0.1570
     22  C         15.6490   92.0270   53.4290 C.2    37  MET37       0.2261
     23  O         16.5370   92.7350   53.9270 O.2    37  MET37      -0.2867
     24  CB        14.0310   93.0310   51.7490 C.3    37  MET37       0.0387
     25  CG        14.1610   94.5300   52.0940 C.3    37  MET37       0.0595
     26  SD        15.3540   95.5510   51.1720 S.3    37  MET37      -0.1393
     27  CE        14.6590   95.4650   49.5180 C.3    37  MET37       0.0692
     28  N         19.0860   91.5400   53.8440 N.3    40  TRP40      -0.1241
     29  CA        19.7940   92.7750   53.5360 C.3    40  TRP40       0.1605
     30  C         19.7940   93.8760   54.5870 C.2    40  TRP40       0.2264
     31  O         20.6270   94.7630   54.5390 O.2    40  TRP40      -0.2867
     32  CB        19.2930   93.3730   52.2120 C.3    40  TRP40       0.0550
     33  CG        19.5020   92.5370   50.9680 C.ar   40  TRP40       0.0003
     34  CD1       20.3650   91.4870   50.8040 C.ar   40  TRP40       0.0946
     35  CD2       18.8430   92.7100   49.7060 C.ar   40  TRP40       0.0152
     36  NE1       20.2800   91.0010   49.5200 N.ar   40  TRP40      -0.2442
     37  CE2       19.3530   91.7350   48.8280 C.ar   40  TRP40       0.0810
     38  CE3       17.8760   93.6050   49.2310 C.ar   40  TRP40       0.0012
     39  CZ2       18.9270   91.6300   47.5000 C.ar   40  TRP40       0.0191
     40  CZ3       17.4630   93.5010   47.9140 C.ar   40  TRP40       0.0001
     41  CH2       17.9890   92.5230   47.0640 C.ar   40  TRP40       0.0015
     42  N         21.3610   98.5790   52.5520 N.3    49  ILE49      -0.1245
     43  CA        21.0700   99.5000   51.4500 C.3    49  ILE49       0.1561
     44  C         21.4170  100.9520   51.8290 C.2    49  ILE49       0.2260
     45  O         22.1490  101.6220   51.1110 O.2    49  ILE49      -0.2867
     46  CB        19.6180   99.3880   50.9160 C.3    49  ILE49       0.0252
     47  CG1       19.2970   97.9530   50.4840 C.3    49  ILE49       0.0019
     48  CG2       19.4520  100.2960   49.7070 C.3    49  ILE49       0.0019
     49  CD1       20.2070   97.4290   49.4100 C.3    49  ILE49       0.0001
     50  N         25.2300  101.4440   51.3130 N.3    52  ILE52      -0.1231
     51  CA        25.6000  101.5300   49.9120 C.3    52  ILE52       0.1692
     52  C         25.3350  102.9460   49.3940 C.2    52  ILE52       0.2592
     53  O         26.2790  103.7020   49.0960 O.2    52  ILE52      -0.2718
     54  CB        24.8080  100.4760   49.0930 C.3    52  ILE52       0.0266
     55  CG1       25.3170   99.0790   49.4350 C.3    52  ILE52       0.0019
     56  CG2       24.9340  100.7310   47.6020 C.3    52  ILE52       0.0020
     57  CD1       24.6010   97.9940   48.7210 C.3    52  ILE52       0.0001
     58  N         24.0690  103.3430   49.4190 N.am   53  TYR53      -0.1976
     59  CA        23.6600  104.6550   48.9480 C.3    53  TYR53       0.1639
     60  C         24.2760  105.8490   49.6770 C.2    53  TYR53       0.2290
     61  O         24.6020  106.8710   49.0390 O.2    53  TYR53      -0.2864
     62  CB        22.1310  104.7440   48.9470 C.3    53  TYR53       0.0560
     63  CG        21.4910  103.9470   47.8340 C.ar   53  TYR53      -0.0198
     64  CD1       21.1640  102.5990   47.9980 C.ar   53  TYR53      -0.0009
     65  CD2       21.2580  104.5400   46.5970 C.ar   53  TYR53      -0.0009
     66  CE1       20.6190  101.8620   46.9400 C.ar   53  TYR53       0.0417
     67  CE2       20.7250  103.8260   45.5390 C.ar   53  TYR53       0.0417
     68  CZ        20.4080  102.4880   45.7090 C.ar   53  TYR53       0.1957
     69  OH        19.9130  101.8130   44.6130 O.3    53  TYR53      -0.2866
     70  N         28.6380   94.2640   48.9720 N.3    77  GLN77      -0.1245
     71  CA        28.2770   93.3630   47.8980 C.3    77  GLN77       0.1566
     72  C         28.2730   91.8860   48.2870 C.2    77  GLN77       0.2260
     73  O         27.3710   91.1470   47.8840 O.2    77  GLN77      -0.2867
     74  CB        29.1840   93.5930   46.7010 C.3    77  GLN77       0.0367
     75  CG        29.1550   95.0170   46.1990 C.3    77  GLN77       0.0905
     76  CD        27.7570   95.5160   45.8930 C.2    77  GLN77       0.2608
     77  OE1       26.8660   94.7540   45.4470 O.2    77  GLN77      -0.2717
     78  NE2       27.5440   96.8080   46.1130 N.am   77  GLN77      -0.0878
     79  N         25.0560   91.4540   50.1030 N.3    80  MET80      -0.1245
     80  CA        23.8960   91.4720   49.2280 C.3    80  MET80       0.1570
     81  C         23.7360   90.1840   48.4370 C.2    80  MET80       0.2261
     82  O         22.6050   89.7540   48.1650 O.2    80  MET80      -0.2867
     83  CB        23.9720   92.6390   48.2420 C.3    80  MET80       0.0387
     84  CG        23.9460   94.0440   48.8530 C.3    80  MET80       0.0595
     85  SD        22.3280   94.5960   49.4480 S.3    80  MET80      -0.1393
     86  CE        21.3920   94.5090   47.9320 C.3    80  MET80       0.0692
     87  N         15.6530   88.3930   40.6560 N.3   115  ARG115     -0.1245
     88  CA        17.0930   88.5710   40.4140 C.3   115  ARG115      0.1563
     89  C         17.8190   87.2260   40.2380 C.2   115  ARG115      0.2260
     90  O         17.2380   86.1640   40.3880 O.2   115  ARG115     -0.2867
     91  CB        17.7800   89.3730   41.5190 C.3   115  ARG115      0.0307
     92  CG        17.1450   90.6870   41.8250 C.3   115  ARG115      0.0489
     93  CD        18.1600   91.7630   41.8490 C.3   115  ARG115      0.2205
     94  NE        17.8680   92.6650   40.7520 N.pl3 115  ARG115     -0.0865
     95  CZ        17.7590   93.9710   40.8920 C.cat 115  ARG115      0.5346
     96  NH1       17.9360   94.5140   42.0800 N.pl3 115  ARG115      0.1354
     97  NH2       17.3980   94.7180   39.8750 N.pl3 115  ARG115      0.1354
     98  N         24.2000   90.3700   41.8610 N.3   120  ALA120     -0.1245
     99  CA        25.0410   90.6840   43.0000 C.3   120  ALA120      0.1562
    100  C         26.5360   90.5140   42.7180 C.2   120  ALA120      0.2260
    101  O         27.3220   91.3160   43.1140 O.2   120  ALA120     -0.2867
    102  CB        24.6190   89.8360   44.1560 C.3   120  ALA120      0.0290
    103  N         25.6910   94.8860   39.4160 N.3   124  TYR124     -0.1241
    104  CA        25.8120   95.9890   40.3620 C.3   124  TYR124      0.1605
    105  C         27.2820   96.2940   40.6580 C.2   124  TYR124      0.2264
    106  O         27.6970   97.4510   40.5560 O.2   124  TYR124     -0.2867
    107  CB        24.9310   95.7660   41.6140 C.3   124  TYR124      0.0534
    108  CG        23.5030   96.2110   41.3590 C.ar  124  TYR124     -0.0201
    109  CD1       23.1490   97.5550   41.4570 C.ar  124  TYR124     -0.0009
    110  CD2       22.5440   95.3230   40.8870 C.ar  124  TYR124     -0.0009
    111  CE1       21.8870   98.0120   41.0730 C.ar  124  TYR124      0.0417
    112  CE2       21.2640   95.7720   40.4960 C.ar  124  TYR124      0.0417
    113  CZ        20.9480   97.1190   40.5860 C.ar  124  TYR124      0.1957
    114  OH        19.7390   97.6030   40.1190 O.3   124  TYR124     -0.2866
    115  N         29.0300   99.9930   40.1220 N.3   128  ARG128     -0.1245
    116  CA        29.7380  100.7050   41.1890 C.3   128  ARG128      0.1563
    117  C         31.1640  100.9900   40.7960 C.2   128  ARG128      0.2260
    118  O         31.7170  102.0200   41.1820 O.2   128  ARG128     -0.2867
    119  CB        29.6680   99.9460   42.5180 C.3   128  ARG128      0.0307
    120  CG        28.2570   99.9750   43.1590 C.3   128  ARG128      0.0489
    121  CD        27.8010  101.4010   43.5320 C.3   128  ARG128      0.2205
    122  NE        26.4590  101.4140   44.1230 N.pl3 128  ARG128     -0.0865
    123  CZ        25.8600  102.4930   44.6120 C.cat 128  ARG128      0.5346
    124  NH1       26.4710  103.6640   44.6000 N.pl3 128  ARG128      0.1354
    125  NH2       24.6400  102.4010   45.1130 N.pl3 128  ARG128      0.1354
    126  N         12.5470  103.0440   48.0970 N.3   174  ARG174     -0.1245
    127  CA        13.1800  101.8420   48.6730 C.3   174  ARG174      0.1563
    128  C         13.8350  102.3260   49.9870 C.2   174  ARG174      0.2260
    129  O         14.5230  103.3800   50.0150 O.2   174  ARG174     -0.2867
    130  CB        14.2230  101.2610   47.6980 C.3   174  ARG174      0.0307
    131  CG        14.7530   99.8420   47.9970 C.3   174  ARG174      0.0489
    132  CD        13.6640   98.7430   47.9630 C.3   174  ARG174      0.2205
    133  NE        13.0070   98.5440   46.6650 N.pl3 174  ARG174     -0.0865
    134  CZ        13.2250   97.4990   45.8640 C.cat 174  ARG174      0.5346
    135  NH1       14.0920   96.5570   46.2260 N.pl3 174  ARG174      0.1354
    136  NH2       12.5760   97.3840   44.7060 N.pl3 174  ARG174      0.1354
    137  N         17.5010  103.9410   50.1440 N.3   177  GLU177     -0.1245
    138  CA        17.9000  104.4070   48.8410 C.3   177  GLU177      0.1567
    139  C         17.6750  105.9050   48.7660 C.2   177  GLU177      0.2260
    140  O         17.0520  106.4950   49.6400 O.2   177  GLU177     -0.2867
    141  CB        17.0510  103.7060   47.7830 C.3   177  GLU177      0.0388
    142  CG        17.4170  104.0460   46.3580 C.3   177  GLU177      0.1160
    143  CD        16.3450  103.6470   45.3770 C.2   177  GLU177      0.3649
    144  OE1       15.9050  102.4740   45.4230 O.co2 177  GLU177     -0.2457
    145  OE2       15.9480  104.5170   44.5650 O.co2 177  GLU177     -0.2457
    146  N         23.8720  106.6150   39.1620 N.3   183  MET183     -0.1245
    147  CA        23.8950  105.1800   39.4100 C.3   183  MET183      0.1570
    148  C         22.8570  104.5050   38.5030 C.2   183  MET183      0.2261
    149  O         23.1130  103.4380   37.8700 O.2   183  MET183     -0.2867
    150  CB        23.5740  104.9580   40.9030 C.3   183  MET183      0.0387
    151  CG        23.3540  103.5420   41.3450 C.3   183  MET183      0.0595
    152  SD        24.7780  102.5650   41.0060 S.3   183  MET183     -0.1393
    153  CE        24.0420  101.2720   40.1040 C.3   183  MET183      0.0692
@<TRIPOS>BOND
     1   149   148    2
     2   148   147    1
     3     4     3    2
     4     1     2    1
     5   146   147    1
     6   147   150    1
     7   103   104    1
     8     3     2    1
     9    97    95    1
    10   153   152    1
    11     2     5    1
    12   114   113    1
    13   115   116    1
    14     8    10   ar
    15     8     6   ar
    16    89    90    2
    17    89    88    1
    18   104   105    1
    19   104   107    1
    20    88    87    1
    21    88    91    1
    22   112   113   ar
    23   112   110   ar
    24   106   105    2
    25   113   111   ar
    26    10     9   ar
    27    94    95    2
    28    94    93    1
    29   117   118    2
    30   117   116    1
    31   110   108   ar
    32    95    96    1
    33   150   151    1
    34   152   151    1
    35   111   109   ar
    36   116   119    1
    37     6     5    1
    38     6     7   ar
    39   108   109   ar
    40   108   107    1
    41    91    92    1
    42    92    93    1
    43    98    99    1
    44     9     7   ar
    45   119   120    1
    46   100    99    1
    47   100   101    2
    48    99   102    1
    49   120   121    1
    50   121   122    1
    51   122   123    2
    52   145   143   ar
    53   124   123    1
    54   123   125    1
    55    69    68    1
    56   136   134    1
    57    19    17   ar
    58   143   144   ar
    59   143   142    1
    60    77    76    2
    61    67    68   ar
    62    67    65   ar
    63    68    66   ar
    64   134   135    1
    65   134   133    2
    66    76    78   am
    67    76    75    1
    68    17    16    1
    69    17    18   ar
    70    75    74    1
    71   142   141    1
    72    65    63   ar
    73   133   132    1
    74    16    15    1
    75    74    71    1
    76    66    64   ar
    77    15    12    1
    78    41    39   ar
    79    41    40   ar
    80    11    12    1
    81    12    13    1
    82    39    37   ar
    83    56    54    1
    84   130   131    1
    85   130   127    1
    86   141   138    1
    87    63    64   ar
    88    63    62    1
    89    73    72    2
    90    71    72    1
    91    71    70    1
    92    40    38   ar
    93    86    85    1
    94   132   131    1
    95   126   127    1
    96    82    81    2
    97    83    84    1
    98    83    80    1
    99    81    80    1
   100   127   128    1
   101    57    55    1
   102   139   138    1
   103   139   140    2
   104    37    36   ar
   105    37    35   ar
   106   138   137    1
   107    84    85    1
   108    13    14    2
   109    62    59    1
   110    59    58    1
   111    59    60    1
   112    61    60    2
   113    54    55    1
   114    54    51    1
   115    53    52    2
   116    80    79    1
   117    38    35   ar
   118    52    58   am
   119    52    51    1
   120    49    47    1
   121    27    26    1
   122    36    34   ar
   123    35    33   ar
   124    48    46    1
   125    51    50    1
   126   128   129    2
   127    47    46    1
   128    34    33   ar
   129    46    43    1
   130    33    32    1
   131    45    44    2
   132    26    25    1
   133    20    21    1
   134    43    44    1
   135    43    42    1
   136    24    21    1
   137    24    25    1
   138    21    22    1
   139    32    29    1
   140    22    23    2
   141    29    28    1
   142    29    30    1
   143    31    30    2
