@<TRIPOS>MOLECULE
tmp/1ki3B00.pdb
 174 164 0 0 0
SMALL
GASTEIGER

@<TRIPOS>ATOM
      1  N         16.7700   97.9150   38.8340 N.3    13  HIS13      -0.1241
      2  CA        15.7340   98.0450   39.8470 C.3    13  HIS13       0.1621
      3  C         14.8020   99.1780   39.4100 C.2    13  HIS13       0.2264
      4  O         15.2300  100.0840   38.6260 O.2    13  HIS13      -0.2867
      5  CB        16.3770   98.3990   41.1800 C.3    13  HIS13       0.0745
      6  CG        17.3070   99.5700   41.1050 C.ar   13  HIS13       0.0817
      7  ND1       18.6270   99.4440   40.7350 N.ar   13  HIS13      -0.2268
      8  CD2       17.0990  100.8930   41.3100 C.ar   13  HIS13       0.1154
      9  CE1       19.1910  100.6400   40.7060 C.ar   13  HIS13       0.1986
     10  NE2       18.2880  101.5360   41.0520 N.ar   13  HIS13      -0.2212
     11  N         12.7060   88.6260   46.5320 N.3    35  GLU35      -0.1245
     12  CA        13.9410   89.3120   46.9110 C.3    35  GLU35       0.1567
     13  C         14.1300   89.2160   48.4080 C.2    35  GLU35       0.2260
     14  O         13.2720   89.6400   49.1760 O.2    35  GLU35      -0.2867
     15  CB        13.8900   90.7770   46.4900 C.3    35  GLU35       0.0388
     16  CG        15.0640   91.1770   45.6430 C.3    35  GLU35       0.1160
     17  CD        14.9100   92.5710   45.1370 C.2    35  GLU35       0.3649
     18  OE1       14.6770   93.4500   46.0010 O.co2  35  GLU35      -0.2457
     19  OE2       14.9970   92.7700   43.8920 O.co2  35  GLU35      -0.2457
     20  N         19.1110   91.5240   53.6170 N.3    40  TRP40      -0.1241
     21  CA        19.7830   92.7830   53.3660 C.3    40  TRP40       0.1605
     22  C         19.5670   93.7730   54.4910 C.2    40  TRP40       0.2264
     23  O         20.4470   94.5050   54.8220 O.2    40  TRP40      -0.2867
     24  CB        19.2890   93.3690   52.0390 C.3    40  TRP40       0.0550
     25  CG        19.3820   92.4240   50.8380 C.ar   40  TRP40       0.0003
     26  CD1       20.1200   91.2700   50.7400 C.ar   40  TRP40       0.0946
     27  CD2       18.7430   92.5870   49.5680 C.ar   40  TRP40       0.0152
     28  NE1       19.9850   90.7180   49.4920 N.ar   40  TRP40      -0.2442
     29  CE2       19.1430   91.5060   48.7530 C.ar   40  TRP40       0.0810
     30  CE3       17.8700   93.5450   49.0360 C.ar   40  TRP40       0.0012
     31  CZ2       18.7000   91.3600   47.4400 C.ar   40  TRP40       0.0191
     32  CZ3       17.4330   93.4010   47.7340 C.ar   40  TRP40       0.0001
     33  CH2       17.8490   92.3170   46.9480 C.ar   40  TRP40       0.0015
     34  N         21.2120   97.8740   51.9210 N.3    49  ILE49      -0.1245
     35  CA        20.9260   98.7630   50.7930 C.3    49  ILE49       0.1561
     36  C         21.0130  100.2500   51.1170 C.2    49  ILE49       0.2260
     37  O         21.2720  101.0570   50.2340 O.2    49  ILE49      -0.2867
     38  CB        19.5620   98.4410   50.1500 C.3    49  ILE49       0.0252
     39  CG1       19.5110   96.9760   49.7610 C.3    49  ILE49       0.0019
     40  CG2       19.3250   99.2800   48.8930 C.3    49  ILE49       0.0019
     41  CD1       18.2380   96.6470   49.0620 C.3    49  ILE49       0.0001
     42  N         24.8160  101.0650   51.0700 N.3    52  ILE52      -0.1231
     43  CA        25.2910  101.2080   49.6890 C.3    52  ILE52       0.1692
     44  C         25.0920  102.6570   49.2100 C.2    52  ILE52       0.2592
     45  O         26.0660  103.3890   48.8990 O.2    52  ILE52      -0.2718
     46  CB        24.5010  100.1950   48.7410 C.3    52  ILE52       0.0266
     47  CG1       24.9510   98.7500   49.0350 C.3    52  ILE52       0.0019
     48  CG2       24.6110  100.5910   47.2430 C.3    52  ILE52       0.0020
     49  CD1       24.1690   97.6410   48.3120 C.3    52  ILE52       0.0001
     50  N         23.8340  103.0870   49.2070 N.am   53  TYR53      -0.1976
     51  CA        23.4460  104.4250   48.7810 C.3    53  TYR53       0.1639
     52  C         24.0930  105.6170   49.5290 C.2    53  TYR53       0.2290
     53  O         24.3420  106.6470   48.9350 O.2    53  TYR53      -0.2864
     54  CB        21.9230  104.4900   48.7710 C.3    53  TYR53       0.0560
     55  CG        21.3070  103.7880   47.5590 C.ar   53  TYR53      -0.0198
     56  CD1       21.2970  104.4170   46.3120 C.ar   53  TYR53      -0.0009
     57  CD2       20.7000  102.5310   47.6580 C.ar   53  TYR53      -0.0009
     58  CE1       20.6970  103.8370   45.2050 C.ar   53  TYR53       0.0417
     59  CE2       20.0900  101.9400   46.5300 C.ar   53  TYR53       0.0417
     60  CZ        20.0940  102.6190   45.3130 C.ar   53  TYR53       0.1957
     61  OH        19.4420  102.1590   44.1970 O.3    53  TYR53      -0.2866
     62  N         31.8910   99.3070   49.7420 N.3    73  MET73      -0.1245
     63  CA        31.0060   98.8150   48.7070 C.3    73  MET73       0.1570
     64  C         31.2650   97.3580   48.5010 C.2    73  MET73       0.2261
     65  O         30.4060   96.5490   48.7660 O.2    73  MET73      -0.2867
     66  CB        31.2340   99.5590   47.4080 C.3    73  MET73       0.0387
     67  CG        30.4910  100.8810   47.2610 C.3    73  MET73       0.0595
     68  SD        28.7120  100.7290   47.1180 S.3    73  MET73      -0.1393
     69  CE        28.5900   99.2090   46.3840 C.3    73  MET73       0.0692
     70  N         28.4730   94.2270   48.8790 N.3    77  GLN77      -0.1245
     71  CA        28.0280   93.3710   47.7960 C.3    77  GLN77       0.1566
     72  C         28.0130   91.9300   48.2400 C.2    77  GLN77       0.2260
     73  O         27.1000   91.2090   47.9110 O.2    77  GLN77      -0.2867
     74  CB        28.9410   93.5090   46.5930 C.3    77  GLN77       0.0367
     75  CG        28.9910   94.9100   46.0020 C.3    77  GLN77       0.0905
     76  CD        27.6510   95.3910   45.5100 C.2    77  GLN77       0.2608
     77  OE1       26.8860   94.6400   44.8610 O.2    77  GLN77      -0.2717
     78  NE2       27.3290   96.6340   45.8350 N.am   77  GLN77      -0.0878
     79  N         24.6740   91.0590   49.6760 N.3    80  MET80      -0.1245
     80  CA        23.5960   91.0930   48.7050 C.3    80  MET80       0.1570
     81  C         23.3970   89.7720   47.9790 C.2    80  MET80       0.2261
     82  O         22.2640   89.2730   47.8290 O.2    80  MET80      -0.2867
     83  CB        23.8710   92.2020   47.6760 C.3    80  MET80       0.0387
     84  CG        24.0140   93.6440   48.2430 C.3    80  MET80       0.0595
     85  SD        22.5570   94.2920   49.0780 S.3    80  MET80      -0.1393
     86  CE        21.5990   94.9660   47.7720 C.3    80  MET80       0.0692
     87  N         21.1880   84.4350   46.9220 N.3    84  TYR84      -0.1241
     88  CA        21.1680   83.9080   45.5470 C.3    84  TYR84       0.1605
     89  C         22.1080   82.7350   45.4140 C.2    84  TYR84       0.2264
     90  O         21.7910   81.7060   44.8260 O.2    84  TYR84      -0.2867
     91  CB        21.6190   84.9770   44.5500 C.3    84  TYR84       0.0534
     92  CG        20.7870   86.2490   44.5120 C.ar   84  TYR84      -0.0201
     93  CD1       19.4250   86.2110   44.7260 C.ar   84  TYR84      -0.0009
     94  CD2       21.3750   87.4920   44.2610 C.ar   84  TYR84      -0.0009
     95  CE1       18.6530   87.3760   44.7030 C.ar   84  TYR84       0.0417
     96  CE2       20.6030   88.6690   44.2250 C.ar   84  TYR84       0.0417
     97  CZ        19.2390   88.5920   44.4540 C.ar   84  TYR84       0.1957
     98  OH        18.4310   89.7100   44.4320 O.3    84  TYR84      -0.2866
     99  N         15.7820   88.0420   40.5440 N.3   114  ARG114     -0.1245
    100  CA        17.1990   88.2290   40.2720 C.3   114  ARG114      0.1563
    101  C         17.9060   86.8960   40.1630 C.2   114  ARG114      0.2260
    102  O         17.3500   85.8830   40.4350 O.2   114  ARG114     -0.2867
    103  CB        17.8610   89.1750   41.2900 C.3   114  ARG114      0.0307
    104  CG        17.1550   90.5370   41.3230 C.3   114  ARG114      0.0489
    105  CD        17.9090   91.6130   42.0450 C.3   114  ARG114      0.2205
    106  NE        18.4850   92.5950   41.1350 N.pl3 114  ARG114     -0.0865
    107  CZ        17.7960   93.4010   40.3290 C.cat 114  ARG114      0.5346
    108  NH1       16.4790   93.3780   40.2770 N.pl3 114  ARG114      0.1354
    109  NH2       18.4370   94.2180   39.5290 N.pl3 114  ARG114      0.1354
    110  N         24.3920   89.8750   41.4420 N.3   119  ALA119     -0.1245
    111  CA        25.1170   90.2780   42.6380 C.3   119  ALA119      0.1562
    112  C         26.6080   90.0920   42.4500 C.2   119  ALA119      0.2260
    113  O         27.4210   90.8370   42.9660 O.2   119  ALA119     -0.2867
    114  CB        24.6280   89.4470   43.8100 C.3   119  ALA119      0.0290
    115  N         25.6270   94.4510   39.3090 N.3   123  TYR123     -0.1241
    116  CA        25.6710   95.5210   40.2770 C.3   123  TYR123      0.1605
    117  C         27.0710   96.0260   40.5610 C.2   123  TYR123      0.2264
    118  O         27.3010   97.2390   40.5940 O.2   123  TYR123     -0.2867
    119  CB        24.8260   95.1580   41.4860 C.3   123  TYR123      0.0534
    120  CG        23.4030   95.5320   41.1980 C.ar  123  TYR123     -0.0201
    121  CD1       23.0390   96.8650   41.2180 C.ar  123  TYR123     -0.0009
    122  CD2       22.4670   94.6000   40.7620 C.ar  123  TYR123     -0.0009
    123  CE1       21.8080   97.2880   40.8090 C.ar  123  TYR123      0.0417
    124  CE2       21.2070   95.0150   40.3390 C.ar  123  TYR123      0.0417
    125  CZ        20.8910   96.3750   40.3620 C.ar  123  TYR123      0.1957
    126  OH        19.6830   96.8990   39.9250 O.3   123  TYR123     -0.2866
    127  N         28.7770   99.5280   39.9430 N.3   127  ARG127     -0.1245
    128  CA        29.4280  100.3020   41.0110 C.3   127  ARG127      0.1563
    129  C         30.8640  100.6350   40.6170 C.2   127  ARG127      0.2260
    130  O         31.4140  101.6800   41.0160 O.2   127  ARG127     -0.2867
    131  CB        29.3690   99.5680   42.3510 C.3   127  ARG127      0.0307
    132  CG        27.9680   99.5420   42.9490 C.3   127  ARG127      0.0489
    133  CD        27.5380  100.9510   43.3250 C.3   127  ARG127      0.2205
    134  NE        26.1900  101.0250   43.8790 N.pl3 127  ARG127     -0.0865
    135  CZ        25.6310  102.1650   44.2670 C.cat 127  ARG127      0.5346
    136  NH1       26.2990  103.2950   44.1570 N.pl3 127  ARG127      0.1354
    137  NH2       24.4160  102.1790   44.7780 N.pl3 127  ARG127      0.1354
    138  N         11.0320  103.7180   45.7210 N.3   172  GLN172     -0.1231
    139  CA        11.4930  102.3260   45.5620 C.3   172  GLN172      0.1698
    140  C         12.0450  101.7400   46.8920 C.2   172  GLN172      0.2592
    141  O         11.3360  101.7990   47.9150 O.2   172  GLN172     -0.2718
    142  CB        12.4740  102.1590   44.3840 C.3   172  GLN172      0.0381
    143  CG        11.9920  101.1700   43.2900 C.3   172  GLN172      0.0905
    144  CD        12.7650   99.8440   43.2680 C.2   172  GLN172      0.2608
    145  OE1       14.0040   99.8330   43.2500 O.2   172  GLN172     -0.2717
    146  NE2       12.0400   98.7290   43.2560 N.am  172  GLN172     -0.0878
    147  N         13.2900  101.2460   46.9200 N.am  173  ARG173     -0.1980
    148  CA        13.8570  100.6180   48.1340 C.3   173  ARG173      0.1597
    149  C         14.2740  101.5040   49.3170 C.2   173  ARG173      0.2287
    150  O         14.8410  102.5790   49.1220 O.2   173  ARG173     -0.2864
    151  CB        14.9800   99.6430   47.7620 C.3   173  ARG173      0.0334
    152  CG        14.4700   98.2480   47.4630 C.3   173  ARG173      0.0492
    153  CD        13.3360   98.2590   46.4400 C.3   173  ARG173      0.2205
    154  NE        12.3830   97.1730   46.6660 N.pl3 173  ARG173     -0.0865
    155  CZ        11.0680   97.2570   46.4510 C.cat 173  ARG173      0.5346
    156  NH1       10.5080   98.3810   45.9910 N.pl3 173  ARG173      0.1354
    157  NH2       10.2990   96.2100   46.7320 N.pl3 173  ARG173      0.1354
    158  N         17.3690  103.7590   49.6100 N.3   176  GLU176     -0.1245
    159  CA        17.6750  104.1180   48.2520 C.3   176  GLU176      0.1567
    160  C         17.5980  105.6050   47.9830 C.2   176  GLU176      0.2260
    161  O         16.6340  106.2880   48.3610 O.2   176  GLU176     -0.2867
    162  CB        16.7500  103.3660   47.3090 C.3   176  GLU176      0.0388
    163  CG        16.8880  103.7220   45.8540 C.3   176  GLU176      0.1160
    164  CD        16.1500  102.7410   44.9920 C.2   176  GLU176      0.3649
    165  OE1       16.3230  101.5250   45.2230 O.co2 176  GLU176     -0.2457
    166  OE2       15.3850  103.1740   44.1060 O.co2 176  GLU176     -0.2457
    167  N         23.7220  106.3340   38.6300 N.3   182  MET182     -0.1245
    168  CA        23.6860  104.9170   39.0030 C.3   182  MET182      0.1570
    169  C         22.6550  104.2020   38.1210 C.2   182  MET182      0.2261
    170  O         22.8950  103.0870   37.6350 O.2   182  MET182     -0.2867
    171  CB        23.3620  104.7440   40.5070 C.3   182  MET182      0.0387
    172  CG        23.3900  103.2800   41.0210 C.3   182  MET182      0.0595
    173  SD        24.8860  102.3170   40.5520 S.3   182  MET182     -0.1393
    174  CE        24.4170  100.6130   41.0930 C.3   182  MET182      0.0692
@<TRIPOS>BOND
     1   170   169    2
     2   169   168    1
     3     4     3    2
     4   167   168    1
     5     1     2    1
     6   168   171    1
     7   115   116    1
     8     3     2    1
     9   109   107    1
    10     2     5    1
    11   126   125    1
    12   127   128    1
    13   101   100    1
    14   101   102    2
    15   100    99    1
    16   100   103    1
    17   108   107    1
    18   116   117    1
    19   116   119    1
    20   107   106    2
    21   124   125   ar
    22   124   122   ar
    23   125   123   ar
    24   171   172    1
    25   173   172    1
    26   173   174    1
    27   117   118    2
    28   129   128    1
    29   129   130    2
    30     9     7   ar
    31     9    10   ar
    32     7     6   ar
    33   122   120   ar
    34   123   121   ar
    35   128   131    1
    36    10     8   ar
    37     6     5    1
    38     6     8   ar
    39   106   105    1
    40   120   121   ar
    41   120   119    1
    42   103   104    1
    43   104   105    1
    44   110   111    1
    45   131   132    1
    46   112   111    1
    47   112   113    2
    48   111   114    1
    49   132   133    1
    50   145   144    2
    51   146   144   am
    52   144   143    1
    53   143   142    1
    54   133   134    1
    55   134   135    2
    56    19    17   ar
    57   166   164   ar
    58   136   135    1
    59    61    60    1
    60    96    94   ar
    61    96    97   ar
    62    94    92   ar
    63   135   137    1
    64   142   139    1
    65    98    97    1
    66    97    95   ar
    67    92    91    1
    68    92    93   ar
    69    91    88    1
    70    95    93   ar
    71    90    89    2
    72    77    76    2
    73   164   165   ar
    74   164   163    1
    75    17    16    1
    76    17    18   ar
    77    58    60   ar
    78    58    56   ar
    79    60    59   ar
    80    89    88    1
    81    76    78   am
    82    76    75    1
    83    88    87    1
    84   139   138    1
    85   139   140    1
    86    16    15    1
    87   163   162    1
    88   156   155    1
    89    75    74    1
    90    56    55   ar
    91    69    68    1
    92   153   154    1
    93   153   152    1
    94   155   154    2
    95   155   157    1
    96    15    12    1
    97    59    57   ar
    98    11    12    1
    99    74    71    1
   100   140   147   am
   101   140   141    2
   102    12    13    1
   103   147   148    1
   104    33    31   ar
   105    33    32   ar
   106    68    67    1
   107    48    46    1
   108    67    66    1
   109   162   159    1
   110    66    63    1
   111    31    29   ar
   112   152   151    1
   113    55    57   ar
   114    55    54    1
   115    83    84    1
   116    83    80    1
   117    32    30   ar
   118   151   148    1
   119    86    85    1
   120    71    72    1
   121    71    70    1
   122    82    81    2
   123    73    72    2
   124    81    80    1
   125   160   159    1
   126   160   161    2
   127   148   149    1
   128    84    85    1
   129   159   158    1
   130    49    47    1
   131    13    14    2
   132    64    63    1
   133    64    65    2
   134    80    79    1
   135    63    62    1
   136    46    47    1
   137    46    43    1
   138    29    28   ar
   139    29    27   ar
   140    54    51    1
   141    51    50    1
   142    51    52    1
   143    40    38    1
   144    45    44    2
   145    53    52    2
   146    30    27   ar
   147    41    39    1
   148   150   149    2
   149    50    44   am
   150    44    43    1
   151    28    26   ar
   152    27    25   ar
   153    43    42    1
   154    39    38    1
   155    38    35    1
   156    37    36    2
   157    26    25   ar
   158    35    36    1
   159    35    34    1
   160    25    24    1
   161    24    21    1
   162    21    20    1
   163    21    22    1
   164    22    23    2
