@<TRIPOS>MOLECULE
tmp/1ki4B00.pdb
 164 157 0 0 0
SMALL
GASTEIGER

@<TRIPOS>ATOM
      1  N         16.8720   96.3220   38.2960 N.3    13  HIS13      -0.1297
      2  CA        15.7950   96.4320   39.2600 C.3    13  HIS13       0.1306
      3  C         14.8660   97.5280   38.7360 C.3    13  HIS13       0.2013
      4  O         15.2650   98.3060   37.7910 O.3    13  HIS13      -0.2188
      5  CB        16.3600   96.7720   40.6510 C.3    13  HIS13       0.0691
      6  CG        17.4270   97.8210   40.6360 C.ar   13  HIS13       0.0814
      7  ND1       17.2080   99.1060   41.0720 N.ar   13  HIS13      -0.2268
      8  CD2       18.7290   97.7680   40.2720 C.ar   13  HIS13       0.1154
      9  CE1       18.3230   99.8010   40.9930 C.ar   13  HIS13       0.1986
     10  NE2       19.2640   99.0140   40.5100 N.ar   13  HIS13      -0.2212
     11  N         13.1280   86.9690   46.3920 N.3    35  GLU35      -0.1245
     12  CA        14.3650   87.6100   46.7360 C.3    35  GLU35       0.1567
     13  C         14.4210   87.4250   48.2230 C.2    35  GLU35       0.2260
     14  O         13.3960   87.5220   48.8900 O.2    35  GLU35      -0.2867
     15  CB        14.2920   89.0820   46.3980 C.3    35  GLU35       0.0388
     16  CG        14.6070   89.4010   44.9620 C.3    35  GLU35       0.1160
     17  CD        14.4470   90.8830   44.6440 C.2    35  GLU35       0.3649
     18  OE1       13.5800   91.5280   45.2700 O.co2  35  GLU35      -0.2457
     19  OE2       15.2010   91.4080   43.7910 O.co2  35  GLU35      -0.2457
     20  N         18.9800   89.8570   53.7240 N.3    40  TRP40      -0.1241
     21  CA        19.6330   91.1360   53.4380 C.3    40  TRP40       0.1605
     22  C         19.4100   92.1690   54.5300 C.2    40  TRP40       0.2264
     23  O         20.2630   93.0400   54.7950 O.2    40  TRP40      -0.2867
     24  CB        19.0960   91.7100   52.1080 C.3    40  TRP40       0.0550
     25  CG        19.2440   90.7850   50.8650 C.ar   40  TRP40       0.0003
     26  CD1       20.1270   89.7460   50.7040 C.ar   40  TRP40       0.0946
     27  CD2       18.5340   90.8950   49.6210 C.ar   40  TRP40       0.0152
     28  NE1       20.0220   89.2230   49.4340 N.ar   40  TRP40      -0.2442
     29  CE2       19.0520   89.9060   48.7520 C.ar   40  TRP40       0.0810
     30  CE3       17.5120   91.7350   49.1530 C.ar   40  TRP40       0.0012
     31  CZ2       18.5750   89.7430   47.4380 C.ar   40  TRP40       0.0191
     32  CZ3       17.0440   91.5720   47.8620 C.ar   40  TRP40       0.0001
     33  CH2       17.5720   90.5900   47.0210 C.ar   40  TRP40       0.0015
     34  N         20.9790   96.3430   51.6390 N.3    49  ILE49      -0.1245
     35  CA        20.6740   97.2690   50.5580 C.3    49  ILE49       0.1561
     36  C         20.8790   98.7280   50.9660 C.2    49  ILE49       0.2260
     37  O         21.3910   99.5280   50.2030 O.2    49  ILE49      -0.2867
     38  CB        19.2720   97.0710   50.0300 C.3    49  ILE49       0.0252
     39  CG1       19.1000   95.6500   49.5350 C.3    49  ILE49       0.0019
     40  CG2       19.0270   98.0140   48.9070 C.3    49  ILE49       0.0019
     41  CD1       17.7600   95.4160   48.8470 C.3    49  ILE49       0.0001
     42  N         24.5640   99.4380   50.7040 N.3    52  ILE52      -0.1231
     43  CA        25.0020   99.5770   49.3240 C.3    52  ILE52       0.1692
     44  C         24.7660  100.9870   48.7550 C.2    52  ILE52       0.2592
     45  O         25.7280  101.7090   48.3440 O.2    52  ILE52      -0.2718
     46  CB        24.3000   98.5190   48.4370 C.3    52  ILE52       0.0266
     47  CG1       24.6950   97.0940   48.8770 C.3    52  ILE52       0.0019
     48  CG2       24.6350   98.7510   46.9580 C.3    52  ILE52       0.0020
     49  CD1       23.9640   95.9270   48.1240 C.3    52  ILE52       0.0001
     50  N         23.5200  101.4320   48.7900 N.am   53  TYR53      -0.1976
     51  CA        23.1780  102.7430   48.2400 C.3    53  TYR53       0.1639
     52  C         23.7940  103.9570   48.9670 C.2    53  TYR53       0.2290
     53  O         24.0420  105.0050   48.3460 O.2    53  TYR53      -0.2864
     54  CB        21.6470  102.8510   48.0730 C.3    53  TYR53       0.0560
     55  CG        21.0840  101.9100   46.9930 C.ar   53  TYR53      -0.0198
     56  CD1       20.9080  100.5510   47.2360 C.ar   53  TYR53      -0.0009
     57  CD2       20.7640  102.3880   45.7130 C.ar   53  TYR53      -0.0009
     58  CE1       20.4400   99.7060   46.2430 C.ar   53  TYR53       0.0417
     59  CE2       20.2950  101.5460   44.7260 C.ar   53  TYR53       0.0417
     60  CZ        20.1390  100.2270   44.9970 C.ar   53  TYR53       0.1957
     61  OH        19.6780   99.4180   44.0050 O.3    53  TYR53      -0.2866
     62  N         28.1660   92.3800   48.4330 N.3    77  GLN77      -0.1245
     63  CA        27.8040   91.4360   47.3650 C.3    77  GLN77       0.1566
     64  C         27.8840   89.9860   47.7850 C.2    77  GLN77       0.2260
     65  O         27.2120   89.1270   47.2310 O.2    77  GLN77      -0.2867
     66  CB        28.7010   91.6400   46.1460 C.3    77  GLN77       0.0367
     67  CG        28.4730   92.9730   45.4330 C.3    77  GLN77       0.0905
     68  CD        27.0260   93.1260   45.0120 C.2    77  GLN77       0.2608
     69  OE1       26.4330   94.2220   45.0980 O.2    77  GLN77      -0.2717
     70  NE2       26.4360   92.0240   44.5660 N.am   77  GLN77      -0.0878
     71  N         24.5540   89.5860   49.5830 N.3    80  MET80      -0.1245
     72  CA        23.4720   89.5540   48.6000 C.3    80  MET80       0.1570
     73  C         23.3190   88.2250   47.8550 C.2    80  MET80       0.2261
     74  O         22.2170   87.7570   47.6450 O.2    80  MET80      -0.2867
     75  CB        23.6670   90.6500   47.5620 C.3    80  MET80       0.0387
     76  CG        23.6720   92.0490   48.1120 C.3    80  MET80       0.0595
     77  SD        22.1760   92.4450   49.0040 S.3    80  MET80      -0.1393
     78  CE        21.2330   93.3550   47.8490 C.3    80  MET80       0.0692
     79  N         21.2680   82.6440   47.0520 N.3    84  TYR84      -0.1241
     80  CA        21.2180   82.1190   45.6880 C.3    84  TYR84       0.1605
     81  C         22.2410   80.9890   45.5680 C.2    84  TYR84       0.2264
     82  O         21.9160   79.8450   45.1340 O.2    84  TYR84      -0.2867
     83  CB        21.5650   83.2410   44.7150 C.3    84  TYR84       0.0534
     84  CG        20.5310   84.3350   44.7180 C.ar   84  TYR84      -0.0201
     85  CD1       20.5870   85.3990   45.6290 C.ar   84  TYR84      -0.0009
     86  CD2       19.4740   84.2790   43.8350 C.ar   84  TYR84      -0.0009
     87  CE1       19.5690   86.3930   45.6430 C.ar   84  TYR84       0.0417
     88  CE2       18.4820   85.2400   43.8310 C.ar   84  TYR84       0.0417
     89  CZ        18.5180   86.2860   44.7230 C.ar   84  TYR84       0.1957
     90  OH        17.4660   87.1860   44.6480 O.3    84  TYR84      -0.2866
     91  N         15.7330   86.3090   40.1420 N.3   110  ARG110     -0.1231
     92  CA        17.1630   86.5830   39.9570 C.3   110  ARG110      0.1694
     93  C         17.9720   85.2990   40.0320 C.2   110  ARG110      0.2592
     94  O         17.6370   84.3950   40.7510 O.2   110  ARG110     -0.2718
     95  CB        17.6850   87.6150   40.9420 C.3   110  ARG110      0.0321
     96  CG        16.6970   88.7410   41.1260 C.3   110  ARG110      0.0489
     97  CD        17.3450   89.9920   41.5710 C.3   110  ARG110      0.2205
     98  NE        18.1290   90.5570   40.4840 N.pl3 110  ARG110     -0.0865
     99  CZ        17.8530   91.7070   39.8860 C.cat 110  ARG110      0.5346
    100  NH1       16.7960   92.4060   40.2550 N.pl3 110  ARG110      0.1354
    101  NH2       18.6890   92.1980   38.9840 N.pl3 110  ARG110      0.1354
    102  N         18.9910   85.2110   39.1850 N.am  111  HIS111     -0.1976
    103  CA        19.8830   84.0470   39.0940 C.3   111  HIS111      0.1656
    104  C         21.1720   84.3900   39.8130 C.2   111  HIS111      0.2291
    105  O         21.5210   85.5910   39.9810 O.2   111  HIS111     -0.2864
    106  CB        20.1740   83.7580   37.6090 C.3   111  HIS111      0.0771
    107  CG        20.8840   82.4610   37.3550 C.ar  111  HIS111      0.0820
    108  ND1       22.2480   82.3470   37.3250 N.ar  111  HIS111     -0.2267
    109  CD2       20.4070   81.2220   37.0890 C.ar  111  HIS111      0.1154
    110  CE1       22.5890   81.1010   37.0500 C.ar  111  HIS111      0.1986
    111  NE2       21.4890   80.3970   36.8970 N.ar  111  HIS111     -0.2212
    112  N         23.5370   87.3010   38.9590 N.3   114  ALA114     -0.1231
    113  CA        23.1810   88.6950   39.2070 C.3   114  ALA114      0.1694
    114  C         24.0350   89.2700   40.3100 C.2   114  ALA114      0.2591
    115  O         24.3860   90.4290   40.3010 O.2   114  ALA114     -0.2718
    116  CB        21.7260   88.8040   39.5920 C.3   114  ALA114      0.0304
    117  N         24.3600   88.4270   41.2690 N.am  115  ALA115     -0.1980
    118  CA        25.1510   88.8420   42.4200 C.3   115  ALA115      0.1597
    119  C         26.6330   88.5830   42.2100 C.2   115  ALA115      0.2287
    120  O         27.4500   89.2670   42.7520 O.2   115  ALA115     -0.2864
    121  CB        24.6510   88.1290   43.6830 C.3   115  ALA115      0.0319
    122  N         25.5880   92.7730   39.1310 N.3   119  TYR119     -0.1241
    123  CA        25.6900   93.8240   40.1380 C.3   119  TYR119      0.1605
    124  C         27.1510   94.2490   40.4190 C.2   119  TYR119      0.2264
    125  O         27.4580   95.4790   40.6110 O.2   119  TYR119     -0.2867
    126  CB        24.8260   93.4850   41.3430 C.3   119  TYR119      0.0534
    127  CG        23.4020   93.9250   41.0600 C.ar  119  TYR119     -0.0201
    128  CD1       23.0500   95.2850   41.1560 C.ar  119  TYR119     -0.0009
    129  CD2       22.4420   93.0250   40.5590 C.ar  119  TYR119     -0.0009
    130  CE1       21.7990   95.7270   40.7470 C.ar  119  TYR119      0.0417
    131  CE2       21.1890   93.4590   40.1520 C.ar  119  TYR119      0.0417
    132  CZ        20.8800   94.8020   40.2400 C.ar  119  TYR119      0.1957
    133  OH        19.6890   95.2690   39.7650 O.3   119  TYR119     -0.2866
    134  N         28.7710   97.9840   39.6510 N.3   123  ARG123     -0.1245
    135  CA        29.4290   98.7310   40.7060 C.3   123  ARG123      0.1563
    136  C         30.7990   99.1510   40.2020 C.2   123  ARG123      0.2260
    137  O         31.2030  100.2720   40.3730 O.2   123  ARG123     -0.2867
    138  CB        29.5390   97.8770   41.9730 C.3   123  ARG123      0.0307
    139  CG        28.2220   97.7830   42.7420 C.3   123  ARG123      0.0489
    140  CD        27.7340   99.1760   42.9720 C.3   123  ARG123      0.2205
    141  NE        26.3340   99.2860   43.3490 N.pl3 123  ARG123     -0.0865
    142  CZ        25.7680  100.4520   43.6410 C.cat 123  ARG123      0.5346
    143  NH1       26.5130  101.5480   43.6040 N.pl3 123  ARG123      0.1354
    144  NH2       24.4530  100.5540   43.8320 N.pl3 123  ARG123      0.1354
    145  N         13.6290  100.4390   47.2800 N.3   169  ARG169     -0.1245
    146  CA        13.7830   99.3460   48.2500 C.3   169  ARG169      0.1563
    147  C         14.1040  100.0130   49.6150 C.2   169  ARG169      0.2260
    148  O         14.5700  101.1960   49.6530 O.2   169  ARG169     -0.2867
    149  CB        14.9440   98.4400   47.7710 C.3   169  ARG169      0.0307
    150  CG        14.9600   96.9570   48.1910 C.3   169  ARG169      0.0489
    151  CD        13.7890   96.0900   47.6610 C.3   169  ARG169      0.2205
    152  NE        13.3960   96.3390   46.2670 N.pl3 169  ARG169     -0.0865
    153  CZ        13.2350   95.4020   45.3280 C.cat 169  ARG169      0.5346
    154  NH1       13.4540   94.1230   45.6120 N.pl3 169  ARG169      0.1354
    155  NH2       12.7710   95.7260   44.1270 N.pl3 169  ARG169      0.1354
    156  N         17.1220  102.0870   49.7340 N.3   172  GLU172     -0.1245
    157  CA        17.5450  102.3840   48.3950 C.3   172  GLU172      0.1567
    158  C         17.4450  103.8830   48.1230 C.2   172  GLU172      0.2260
    159  O         16.6280  104.5800   48.7270 O.2   172  GLU172     -0.2867
    160  CB        16.7030  101.6020   47.4040 C.3   172  GLU172      0.0388
    161  CG        17.1590  101.7850   46.0300 C.3   172  GLU172      0.1160
    162  CD        16.2840  101.1350   45.0340 C.2   172  GLU172      0.3649
    163  OE1       15.7000  100.0800   45.3370 O.co2 172  GLU172     -0.2457
    164  OE2       16.2030  101.6940   43.9160 O.co2 172  GLU172     -0.2457
@<TRIPOS>BOND
     1   111   110   ar
     2   111   109   ar
     3   110   108   ar
     4   109   107   ar
     5   108   107   ar
     6   107   106    1
     7   106   103    1
     8     4     3    1
     9     1     2    1
    10     3     2    1
    11   112   113    1
    12   101    99    1
    13   103   102    1
    14   103   104    1
    15   122   123    1
    16   102    93   am
    17   113   116    1
    18   113   114    1
    19     2     5    1
    20   134   135    1
    21   133   132    1
    22   104   105    2
    23    99   100    1
    24    99    98    2
    25    92    93    1
    26    92    91    1
    27    92    95    1
    28    93    94    2
    29   123   124    1
    30   123   126    1
    31   131   132   ar
    32   131   129   ar
    33   136   137    2
    34   136   135    1
    35   132   130   ar
    36     8    10   ar
    37     8     6   ar
    38   115   114    2
    39   114   117   am
    40   124   125    2
    41    98    97    1
    42    10     9   ar
    43   129   127   ar
    44     6     5    1
    45     6     7   ar
    46   135   138    1
    47   130   128   ar
    48    95    96    1
    49     9     7   ar
    50   127   128   ar
    51   127   126    1
    52    96    97    1
    53   117   118    1
    54   138   139    1
    55   119   118    1
    56   119   120    2
    57   118   121    1
    58   139   140    1
    59   140   141    1
    60   141   142    2
    61   143   142    1
    62   142   144    1
    63    19    17   ar
    64    88    86   ar
    65    88    89   ar
    66    86    84   ar
    67   164   162   ar
    68    61    60    1
    69   155   153    1
    70    70    68   am
    71    17    16    1
    72    17    18   ar
    73    90    89    1
    74    83    84    1
    75    83    80    1
    76    84    85   ar
    77    89    87   ar
    78    59    60   ar
    79    59    57   ar
    80    16    15    1
    81    60    58   ar
    82    68    69    2
    83    68    67    1
    84   162   163   ar
    85   162   161    1
    86    82    81    2
    87   153   154    1
    88   153   152    2
    89    67    66    1
    90    81    80    1
    91    85    87   ar
    92    80    79    1
    93    57    55   ar
    94   161   160    1
    95    66    63    1
    96    58    56   ar
    97   152   151    1
    98    11    12    1
    99    15    12    1
   100    12    13    1
   101    48    46    1
   102    55    56   ar
   103    55    54    1
   104    33    31   ar
   105    33    32   ar
   106    65    64    2
   107   145   146    1
   108    63    64    1
   109    63    62    1
   110   160   157    1
   111    31    29   ar
   112    75    76    1
   113    75    72    1
   114    74    73    2
   115   151   150    1
   116   149   150    1
   117   149   146    1
   118    78    77    1
   119    73    72    1
   120    32    30   ar
   121    54    51    1
   122    76    77    1
   123   158   157    1
   124   158   159    2
   125    49    47    1
   126    13    14    2
   127    51    50    1
   128    51    52    1
   129   146   147    1
   130    45    44    2
   131    53    52    2
   132   157   156    1
   133    46    47    1
   134    46    43    1
   135    72    71    1
   136    29    28   ar
   137    29    27   ar
   138    44    50   am
   139    44    43    1
   140    41    39    1
   141    40    38    1
   142    30    27   ar
   143    43    42    1
   144    28    26   ar
   145    39    38    1
   146   147   148    2
   147    27    25   ar
   148    38    35    1
   149    37    36    2
   150    35    36    1
   151    35    34    1
   152    26    25   ar
   153    25    24    1
   154    24    21    1
   155    21    20    1
   156    21    22    1
   157    22    23    2
