@<TRIPOS>MOLECULE
tmp/1ki6A00.pdb
 154 146 0 0 0
SMALL
GASTEIGER

@<TRIPOS>ATOM
      1  N         49.7320   78.0680   57.9310 N.3    13  HIS13      -0.1241
      2  CA        50.9410   78.7150   57.4620 C.3    13  HIS13       0.1621
      3  C         52.0240   78.5290   58.5360 C.2    13  HIS13       0.2264
      4  O         51.7000   78.2480   59.7080 O.2    13  HIS13      -0.2867
      5  CB        50.6700   80.2100   57.2710 C.3    13  HIS13       0.0745
      6  CG        49.8500   80.8320   58.3640 C.ar   13  HIS13       0.0817
      7  ND1       48.5340   80.4990   58.5870 N.ar   13  HIS13      -0.2268
      8  CD2       50.1270   81.8400   59.2300 C.ar   13  HIS13       0.1154
      9  CE1       48.0310   81.2810   59.5280 C.ar   13  HIS13       0.1986
     10  NE2       48.9790   82.1040   59.9370 N.ar   13  HIS13      -0.2212
     11  N         52.4090   79.4200   45.4840 N.3    31  GLU31      -0.1245
     12  CA        51.6110   80.3820   46.2060 C.3    31  GLU31       0.1567
     13  C         51.5140   81.6220   45.3400 C.2    31  GLU31       0.2260
     14  O         52.4900   82.1090   44.8720 O.2    31  GLU31      -0.2867
     15  CB        52.2840   80.6590   47.5340 C.3    31  GLU31       0.0388
     16  CG        51.8520   81.8930   48.2170 C.3    31  GLU31       0.1160
     17  CD        52.5410   82.0390   49.5430 C.2    31  GLU31       0.3649
     18  OE1       52.1710   81.2780   50.4650 O.co2  31  GLU31      -0.2457
     19  OE2       53.4570   82.8880   49.6470 O.co2  31  GLU31      -0.2457
     20  N         48.6890   88.5090   45.2560 N.3    36  TRP36      -0.1241
     21  CA        48.3130   89.0520   46.5630 C.3    36  TRP36       0.1605
     22  C         48.9480   90.3990   46.8140 C.2    36  TRP36       0.2264
     23  O         48.3980   91.2290   47.4950 O.2    36  TRP36      -0.2867
     24  CB        48.7460   88.1090   47.6830 C.3    36  TRP36       0.0550
     25  CG        48.1060   86.7710   47.6720 C.ar   36  TRP36       0.0003
     26  CD1       46.9980   86.4030   46.9900 C.ar   36  TRP36       0.0946
     27  CD2       48.5260   85.6160   48.4180 C.ar   36  TRP36       0.0152
     28  NE1       46.6920   85.0870   47.2610 N.ar   36  TRP36      -0.2442
     29  CE2       47.6140   84.5860   48.1380 C.ar   36  TRP36       0.0810
     30  CE3       49.5740   85.3590   49.2990 C.ar   36  TRP36       0.0012
     31  CZ2       47.7210   83.3160   48.7110 C.ar   36  TRP36       0.0191
     32  CZ3       49.6770   84.1040   49.8630 C.ar   36  TRP36       0.0001
     33  CH2       48.7540   83.0960   49.5690 C.ar   36  TRP36       0.0015
     34  N         48.5080   90.6770   52.0430 N.3    45  ILE45      -0.1245
     35  CA        48.9140   90.0200   53.2830 C.3    45  ILE45       0.1561
     36  C         49.0680   91.0370   54.3940 C.2    45  ILE45       0.2260
     37  O         48.6190   90.8010   55.5070 O.2    45  ILE45      -0.2867
     38  CB        50.2320   89.2380   53.1380 C.3    45  ILE45       0.0252
     39  CG1       50.0310   88.0710   52.1750 C.3    45  ILE45       0.0019
     40  CG2       50.7370   88.7330   54.5130 C.3    45  ILE45       0.0019
     41  CD1       51.2420   87.1470   52.0410 C.3    45  ILE45       0.0001
     42  N         45.6980   92.3780   55.7240 N.3    48  ILE48      -0.1231
     43  CA        45.0680   91.4080   56.5930 C.3    48  ILE48       0.1692
     44  C         45.5980   91.5210   58.0180 C.2    48  ILE48       0.2592
     45  O         44.8380   91.8740   58.9560 O.2    48  ILE48      -0.2718
     46  CB        45.2510   89.9760   56.0250 C.3    48  ILE48       0.0266
     47  CG1       44.3220   89.7850   54.8280 C.3    48  ILE48       0.0019
     48  CG2       45.0500   88.9150   57.0800 C.3    48  ILE48       0.0020
     49  CD1       44.5010   88.4680   54.1090 C.3    48  ILE48       0.0001
     50  N         46.9050   91.3500   58.1820 N.am   49  TYR49      -0.1976
     51  CA        47.4980   91.3930   59.5130 C.3    49  TYR49       0.1639
     52  C         47.4510   92.7350   60.2670 C.2    49  TYR49       0.2290
     53  O         47.4900   92.7560   61.4880 O.2    49  TYR49      -0.2864
     54  CB        48.9160   90.8170   59.4740 C.3    49  TYR49       0.0560
     55  CG        48.9680   89.3280   59.2090 C.ar   49  TYR49      -0.0198
     56  CD1       48.9820   88.8190   57.9080 C.ar   49  TYR49      -0.0009
     57  CD2       48.9950   88.4290   60.2620 C.ar   49  TYR49      -0.0009
     58  CE1       49.0180   87.4360   57.6720 C.ar   49  TYR49       0.0417
     59  CE2       49.0360   87.0620   60.0410 C.ar   49  TYR49       0.0417
     60  CZ        49.0440   86.5720   58.7550 C.ar   49  TYR49       0.1957
     61  OH        49.0480   85.2110   58.5850 O.3    49  TYR49      -0.2866
     62  N         39.8660   88.4410   51.8520 N.3    73  GLN73      -0.1245
     63  CA        39.7740   87.0140   51.5540 C.3    73  GLN73       0.1566
     64  C         39.2900   86.7040   50.1310 C.2    73  GLN73       0.2260
     65  O         39.5000   85.5850   49.6490 O.2    73  GLN73      -0.2867
     66  CB        38.8850   86.2820   52.5670 C.3    73  GLN73       0.0367
     67  CG        39.5560   86.0290   53.9110 C.3    73  GLN73       0.0905
     68  CD        40.8770   85.2860   53.7970 C.2    73  GLN73       0.2608
     69  OE1       41.8470   85.6330   54.4590 O.2    73  GLN73      -0.2717
     70  NE2       40.9170   84.2620   52.9550 N.am   73  GLN73      -0.0878
     71  N         42.4700   86.9250   48.1160 N.3    76  MET76      -0.1245
     72  CA        43.3290   85.7770   48.4260 C.3    76  MET76       0.1570
     73  C         42.9070   84.4850   47.7660 C.2    76  MET76       0.2261
     74  O         43.7230   83.6120   47.5270 O.2    76  MET76      -0.2867
     75  CB        43.4010   85.5220   49.9390 C.3    76  MET76       0.0387
     76  CG        43.8540   86.7240   50.7450 C.3    76  MET76       0.0595
     77  SD        45.6170   87.0480   50.6020 S.3    76  MET76      -0.1393
     78  CE        46.1910   85.6500   51.2300 C.3    76  MET76       0.0692
     79  N         43.0660   80.7300   43.1630 N.3    80  TYR80      -0.1241
     80  CA        42.7100   79.3420   43.4840 C.3    80  TYR80       0.1605
     81  C         41.4260   78.9880   42.7840 C.2    80  TYR80       0.2264
     82  O         41.2580   77.8920   42.3000 O.2    80  TYR80      -0.2867
     83  CB        42.5150   79.1550   45.0060 C.3    80  TYR80       0.0534
     84  CG        43.7420   79.4240   45.8690 C.ar   80  TYR80      -0.0201
     85  CD1       44.9540   78.7760   45.6220 C.ar   80  TYR80      -0.0009
     86  CD2       43.7040   80.3620   46.9120 C.ar   80  TYR80      -0.0009
     87  CE1       46.1030   79.0580   46.3780 C.ar   80  TYR80       0.0417
     88  CE2       44.8680   80.6400   47.6830 C.ar   80  TYR80       0.0417
     89  CZ        46.0520   79.9650   47.3800 C.ar   80  TYR80       0.1957
     90  OH        47.1790   80.2200   48.0780 O.3    80  TYR80      -0.2866
     91  N         48.2750   74.8460   48.2400 N.3   105  ARG105     -0.1245
     92  CA        46.9310   75.1090   48.7840 C.3   105  ARG105      0.1563
     93  C         45.6860   74.8550   47.8740 C.2   105  ARG105      0.2260
     94  O         45.7370   74.9590   46.6440 O.2   105  ARG105     -0.2867
     95  CB        46.8970   76.4860   49.4690 C.3   105  ARG105      0.0307
     96  CG        47.9960   76.6050   50.5030 C.3   105  ARG105      0.0489
     97  CD        48.0180   77.9130   51.1820 C.3   105  ARG105      0.2205
     98  NE        47.4200   77.7740   52.4940 N.pl3 105  ARG105     -0.0865
     99  CZ        47.9110   78.2780   53.6150 C.cat 105  ARG105      0.5346
    100  NH1       49.0260   78.9740   53.6330 N.pl3 105  ARG105      0.1354
    101  NH2       47.2400   78.1160   54.7210 N.pl3 105  ARG105      0.1354
    102  N         41.1440   76.7770   51.3740 N.3   109  ALA109     -0.1231
    103  CA        41.9220   77.5400   52.3240 C.3   109  ALA109      0.1694
    104  C         41.3930   78.9560   52.3330 C.2   109  ALA109      0.2591
    105  O         41.2110   79.5550   53.3620 O.2   109  ALA109     -0.2718
    106  CB        43.3710   77.5220   51.9240 C.3   109  ALA109      0.0304
    107  N         41.0970   79.4840   51.1640 N.am  110  ALA110     -0.1980
    108  CA        40.6070   80.8510   51.0920 C.3   110  ALA110      0.1597
    109  C         39.1210   80.9350   51.2880 C.2   110  ALA110      0.2287
    110  O         38.6150   81.8910   51.8050 O.2   110  ALA110     -0.2864
    111  CB        40.9700   81.4650   49.7650 C.3   110  ALA110      0.0319
    112  N         40.5930   79.9680   56.2570 N.3   114  TYR114     -0.1241
    113  CA        40.9850   81.2900   56.7300 C.3   114  TYR114      0.1605
    114  C         39.8010   82.1010   57.2060 C.2   114  TYR114      0.2264
    115  O         39.9140   82.8790   58.1760 O.2   114  TYR114     -0.2867
    116  CB        41.8880   82.0090   55.7340 C.3   114  TYR114      0.0534
    117  CG        43.3060   81.5080   55.8750 C.ar  114  TYR114     -0.0201
    118  CD1       43.6830   80.2490   55.3740 C.ar  114  TYR114     -0.0009
    119  CD2       44.2420   82.2410   56.6060 C.ar  114  TYR114     -0.0009
    120  CE1       44.9570   79.7380   55.6060 C.ar  114  TYR114      0.0417
    121  CE2       45.5200   81.7400   56.8460 C.ar  114  TYR114      0.0417
    122  CZ        45.8740   80.4810   56.3430 C.ar  114  TYR114      0.1957
    123  OH        47.1420   79.9880   56.5830 O.3   114  TYR114     -0.2866
    124  N         39.4870   83.6470   60.8130 N.3   118  ARG118     -0.1245
    125  CA        39.2520   85.0660   61.0410 C.3   118  ARG118      0.1563
    126  C         37.9680   85.3200   61.8270 C.2   118  ARG118      0.2260
    127  O         37.8630   86.2820   62.5840 O.2   118  ARG118     -0.2867
    128  CB        39.2570   85.8470   59.7390 C.3   118  ARG118      0.0307
    129  CG        40.6540   86.0060   59.2010 C.3   118  ARG118      0.0489
    130  CD        41.5270   86.8040   60.1500 C.3   118  ARG118      0.2205
    131  NE        42.9520   86.6910   59.8050 N.pl3 118  ARG118     -0.0865
    132  CZ        43.9370   87.3070   60.4600 C.cat 118  ARG118      0.5346
    133  NH1       43.6690   88.1020   61.4920 N.pl3 118  ARG118      0.1354
    134  NH2       45.1940   87.0570   60.1450 N.pl3 118  ARG118      0.1354
    135  N         55.5800   86.1350   55.4910 N.3   164  ARG164     -0.1245
    136  CA        55.4950   86.6990   54.1410 C.3   164  ARG164      0.1563
    137  C         55.5540   88.2000   54.3680 C.2   164  ARG164      0.2260
    138  O         55.3640   88.6820   55.5050 O.2   164  ARG164     -0.2867
    139  CB        54.1820   86.2990   53.4610 C.3   164  ARG164      0.0307
    140  CG        53.9420   84.7850   53.3180 C.3   164  ARG164      0.0489
    141  CD        55.1250   84.0330   52.7440 C.3   164  ARG164      0.2205
    142  NE        54.8010   82.6470   52.3610 N.pl3 164  ARG164     -0.0865
    143  CZ        54.7010   81.6230   53.2140 C.cat 164  ARG164      0.5346
    144  NH1       54.9050   81.8080   54.5200 N.pl3 164  ARG164      0.1354
    145  NH2       54.3800   80.4150   52.7850 N.pl3 164  ARG164      0.1354
    146  N         53.2600   90.3100   56.8990 N.3   167  GLU167     -0.1245
    147  CA        52.8640   89.4410   58.0250 C.3   167  GLU167      0.1567
    148  C         53.3310   89.9670   59.3790 C.2   167  GLU167      0.2260
    149  O         54.3680   90.6090   59.4780 O.2   167  GLU167     -0.2867
    150  CB        53.4900   88.0550   57.8840 C.3   167  GLU167      0.0388
    151  CG        52.6870   87.0480   57.1430 C.3   167  GLU167      0.1160
    152  CD        52.8920   85.6340   57.6750 C.2   167  GLU167      0.3649
    153  OE1       52.6040   85.4060   58.8630 O.co2 167  GLU167     -0.2457
    154  OE2       53.2980   84.7280   56.9050 O.co2 167  GLU167     -0.2457
@<TRIPOS>BOND
     1    82    81    2
     2    81    80    1
     3    79    80    1
     4    80    83    1
     5    14    13    2
     6    83    84    1
     7    20    21    1
     8    13    12    1
     9    11    12    1
    10    85    84   ar
    11    85    87   ar
    12    84    86   ar
    13    12    15    1
    14    87    89   ar
    15    21    22    1
    16    21    24    1
    17    94    93    2
    18    22    23    2
    19    86    88   ar
    20    26    28   ar
    21    26    25   ar
    22    28    29   ar
    23    89    88   ar
    24    89    90    1
    25    74    73    2
    26    15    16    1
    27    25    24    1
    28    25    27   ar
    29    73    72    1
    30    93    92    1
    31    71    72    1
    32    29    27   ar
    33    29    31   ar
    34    16    17    1
    35    91    92    1
    36    27    30   ar
    37    72    75    1
    38    31    33   ar
    39    92    95    1
    40    30    32   ar
    41    95    96    1
    42    17    19   ar
    43    17    18   ar
    44    33    32   ar
    45    65    64    2
    46   111   108    1
    47    75    76    1
    48    64    63    1
    49    96    97    1
    50    77    76    1
    51    77    78    1
    52   108   107    1
    53   108   109    1
    54   107   104   am
    55    97    98    1
    56   109   110    2
    57   102   103    1
    58    63    62    1
    59    63    66    1
    60   106   103    1
    61    41    39    1
    62    34    35    1
    63    39    38    1
    64   103   104    1
    65   104   105    2
    66   142   141    1
    67   142   143    2
    68    98    99    2
    69    66    67    1
    70   141   140    1
    71   145   143    1
    72    70    68   am
    73    38    35    1
    74    38    40    1
    75   143   144    1
    76    35    36    1
    77   140   139    1
    78   139   136    1
    79    99   100    1
    80    99   101    1
    81    68    67    1
    82    68    69    2
    83    49    47    1
    84   136   137    1
    85   136   135    1
    86   137   138    2
    87    36    37    2
    88    47    46    1
    89   118   120   ar
    90   118   117   ar
    91   120   122   ar
    92    42    43    1
    93   116   117    1
    94   116   113    1
    95   117   119   ar
    96    46    43    1
    97    46    48    1
    98   112   113    1
    99   122   123    1
   100   122   121   ar
   101    43    44    1
   102   119   121   ar
   103   113   114    1
   104   146   147    1
   105   154   152   ar
   106   151   152    1
   107   151   150    1
   108   114   115    2
   109     5     2    1
   110     5     6    1
   111     2     1    1
   112     2     3    1
   113    58    56   ar
   114    58    60   ar
   115   152   153   ar
   116   150   147    1
   117    56    55   ar
   118    44    50   am
   119    44    45    2
   120   147   148    1
   121    50    51    1
   122     6     7   ar
   123     6     8   ar
   124     3     4    2
   125    61    60    1
   126     7     9   ar
   127    60    59   ar
   128   129   128    1
   129   129   130    1
   130    55    54    1
   131    55    57   ar
   132     8    10   ar
   133   148   149    2
   134    54    51    1
   135    51    52    1
   136     9    10   ar
   137   128   125    1
   138   131   130    1
   139   131   132    2
   140    59    57   ar
   141   134   132    1
   142    52    53    2
   143   132   133    1
   144   124   125    1
   145   125   126    1
   146   126   127    2
