@<TRIPOS>MOLECULE
tmp/1ki7B00.pdb
 154 146 0 0 0
SMALL
GASTEIGER

@<TRIPOS>ATOM
      1  N         16.6160   96.9210   38.3830 N.3    13  HIS13      -0.1241
      2  CA        15.5630   97.1210   39.3630 C.3    13  HIS13       0.1621
      3  C         14.6880   98.2750   38.8770 C.2    13  HIS13       0.2264
      4  O         15.1100   99.0720   37.9700 O.2    13  HIS13      -0.2867
      5  CB        16.1820   97.4600   40.7310 C.3    13  HIS13       0.0745
      6  CG        17.2260   98.5400   40.6850 C.ar   13  HIS13       0.0817
      7  ND1       17.0750   99.7560   41.3200 N.ar   13  HIS13      -0.2268
      8  CD2       18.4690   98.5580   40.1410 C.ar   13  HIS13       0.1154
      9  CE1       18.1780  100.4710   41.1780 C.ar   13  HIS13       0.1986
     10  NE2       19.0390   99.7640   40.4670 N.ar   13  HIS13      -0.2212
     11  N         12.9940   87.4640   46.4050 N.3    35  GLU35      -0.1245
     12  CA        14.2130   88.1780   46.6850 C.3    35  GLU35       0.1567
     13  C         14.3650   88.0640   48.1720 C.2    35  GLU35       0.2260
     14  O         13.4820   88.4420   48.8940 O.2    35  GLU35      -0.2867
     15  CB        14.0750   89.6430   46.3080 C.3    35  GLU35       0.0388
     16  CG        14.3450   89.8920   44.8640 C.3    35  GLU35       0.1160
     17  CD        14.5420   91.3370   44.5820 C.2    35  GLU35       0.3649
     18  OE1       13.8750   92.1790   45.2270 O.co2  35  GLU35      -0.2457
     19  OE2       15.3680   91.6350   43.7110 O.co2  35  GLU35      -0.2457
     20  N         19.0620   90.1910   53.2860 N.3    40  TRP40      -0.1241
     21  CA        19.7560   91.4450   53.0090 C.3    40  TRP40       0.1605
     22  C         19.6280   92.4600   54.1630 C.2    40  TRP40       0.2264
     23  O         20.5080   93.3010   54.3750 O.2    40  TRP40      -0.2867
     24  CB        19.2020   92.0600   51.7090 C.3    40  TRP40       0.0550
     25  CG        19.3120   91.1590   50.4630 C.ar   40  TRP40       0.0003
     26  CD1       20.1930   90.1340   50.2680 C.ar   40  TRP40       0.0946
     27  CD2       18.5700   91.2810   49.2270 C.ar   40  TRP40       0.0152
     28  NE1       20.0630   89.6270   48.9870 N.ar   40  TRP40      -0.2442
     29  CE2       19.0780   90.3150   48.3310 C.ar   40  TRP40       0.0810
     30  CE3       17.5330   92.1130   48.7920 C.ar   40  TRP40       0.0012
     31  CZ2       18.5870   90.1710   47.0180 C.ar   40  TRP40       0.0191
     32  CZ3       17.0490   91.9620   47.4830 C.ar   40  TRP40       0.0001
     33  CH2       17.5770   91.0030   46.6210 C.ar   40  TRP40       0.0015
     34  N         20.8920   96.8760   51.6870 N.3    49  ILE49      -0.1245
     35  CA        20.5690   97.7550   50.5600 C.3    49  ILE49       0.1561
     36  C         20.8090   99.2140   50.9430 C.2    49  ILE49       0.2260
     37  O         21.2100  100.0020   50.1210 O.2    49  ILE49      -0.2867
     38  CB        19.1070   97.6160   50.0870 C.3    49  ILE49       0.0252
     39  CG1       18.7870   96.1810   49.7110 C.3    49  ILE49       0.0019
     40  CG2       18.8980   98.4360   48.8600 C.3    49  ILE49       0.0019
     41  CD1       19.6350   95.6840   48.6000 C.3    49  ILE49       0.0001
     42  N         24.5620   99.7410   50.7810 N.3    52  ILE52      -0.1231
     43  CA        25.0470   99.8550   49.4110 C.3    52  ILE52       0.1692
     44  C         24.8500  101.2810   48.8700 C.2    52  ILE52       0.2592
     45  O         25.8120  101.9530   48.4300 O.2    52  ILE52      -0.2718
     46  CB        24.3110   98.8210   48.4950 C.3    52  ILE52       0.0266
     47  CG1       24.7340   97.3990   48.8630 C.3    52  ILE52       0.0019
     48  CG2       24.5730   99.0960   47.0240 C.3    52  ILE52       0.0020
     49  CD1       23.9270   96.3210   48.1810 C.3    52  ILE52       0.0001
     50  N         23.6140  101.7600   48.9380 N.am   53  TYR53      -0.1976
     51  CA        23.2750  103.0860   48.4330 C.3    53  TYR53       0.1639
     52  C         23.9090  104.2610   49.1830 C.2    53  TYR53       0.2290
     53  O         24.1980  105.2950   48.5880 O.2    53  TYR53      -0.2864
     54  CB        21.7560  103.2090   48.3050 C.3    53  TYR53       0.0560
     55  CG        21.2180  102.3730   47.1520 C.ar   53  TYR53      -0.0198
     56  CD1       21.1370  102.9110   45.8680 C.ar   53  TYR53      -0.0009
     57  CD2       20.8170  101.0470   47.3360 C.ar   53  TYR53      -0.0009
     58  CE1       20.6810  102.1710   44.8030 C.ar   53  TYR53       0.0417
     59  CE2       20.3540  100.2990   46.2770 C.ar   53  TYR53       0.0417
     60  CZ        20.2900  100.8780   45.0030 C.ar   53  TYR53       0.1957
     61  OH        19.8230  100.1830   43.9090 O.3    53  TYR53      -0.2866
     62  N         28.0820   93.1060   48.4940 N.3    77  GLN77      -0.1245
     63  CA        27.7310   92.2460   47.3710 C.3    77  GLN77       0.1566
     64  C         27.8570   90.7690   47.7260 C.2    77  GLN77       0.2260
     65  O         27.1950   89.9400   47.1480 O.2    77  GLN77      -0.2867
     66  CB        28.5820   92.5940   46.1490 C.3    77  GLN77       0.0367
     67  CG        28.1970   93.9190   45.4930 C.3    77  GLN77       0.0905
     68  CD        26.7310   93.9580   45.0450 C.2    77  GLN77       0.2608
     69  OE1       26.2260   93.0070   44.5200 O.2    77  GLN77      -0.2717
     70  NE2       26.0670   95.0870   45.2560 N.am   77  GLN77      -0.0878
     71  N         24.6950   90.0670   49.5670 N.3    80  MET80      -0.1245
     72  CA        23.5810   90.0740   48.6390 C.3    80  MET80       0.1570
     73  C         23.3970   88.7780   47.8800 C.2    80  MET80       0.2261
     74  O         22.2790   88.3730   47.5930 O.2    80  MET80      -0.2867
     75  CB        23.7160   91.2240   47.6350 C.3    80  MET80       0.0387
     76  CG        23.6020   92.6140   48.2210 C.3    80  MET80       0.0595
     77  SD        21.9840   93.0500   48.8650 S.3    80  MET80      -0.1393
     78  CE        20.9830   92.9550   47.4520 C.3    80  MET80       0.0692
     79  N         21.2390   83.3490   46.9900 N.3    84  TYR84      -0.1241
     80  CA        21.1730   82.9170   45.6080 C.3    84  TYR84       0.1605
     81  C         22.1530   81.7850   45.4010 C.2    84  TYR84       0.2264
     82  O         21.8150   80.7650   44.8310 O.2    84  TYR84      -0.2867
     83  CB        21.5120   84.0820   44.6820 C.3    84  TYR84       0.0534
     84  CG        20.4110   85.1190   44.6000 C.ar   84  TYR84      -0.0201
     85  CD1       20.3390   86.1740   45.5030 C.ar   84  TYR84      -0.0009
     86  CD2       19.4480   85.0380   43.6100 C.ar   84  TYR84      -0.0009
     87  CE1       19.3220   87.1240   45.4030 C.ar   84  TYR84       0.0417
     88  CE2       18.4480   85.9660   43.5090 C.ar   84  TYR84       0.0417
     89  CZ        18.3840   87.0080   44.3960 C.ar   84  TYR84       0.1957
     90  OH        17.3840   87.9350   44.2370 O.3    84  TYR84      -0.2866
     91  N         15.5640   86.8680   40.1320 N.3   114  ARG114     -0.1245
     92  CA        16.9880   87.0580   39.8780 C.3   114  ARG114      0.1563
     93  C         17.7630   85.7270   39.9050 C.2   114  ARG114      0.2260
     94  O         17.3270   84.7480   40.4560 O.2   114  ARG114     -0.2867
     95  CB        17.5720   88.1380   40.8010 C.3   114  ARG114      0.0307
     96  CG        16.6560   89.3440   40.9430 C.3   114  ARG114      0.0489
     97  CD        17.3600   90.5800   41.4710 C.3   114  ARG114      0.2205
     98  NE        18.1200   91.2240   40.4100 N.pl3 114  ARG114     -0.0865
     99  CZ        17.8460   92.4160   39.8900 C.cat 114  ARG114      0.5346
    100  NH1       16.8320   93.1400   40.3110 N.pl3 114  ARG114      0.1354
    101  NH2       18.6120   92.8820   38.9370 N.pl3 114  ARG114      0.1354
    102  N         23.3600   87.8560   39.0530 N.3   118  ALA118     -0.1231
    103  CA        22.9790   89.2430   39.3580 C.3   118  ALA118      0.1694
    104  C         23.8960   89.7420   40.4520 C.2   118  ALA118      0.2591
    105  O         24.5080   90.7500   40.3270 O.2   118  ALA118     -0.2718
    106  CB        21.4960   89.3160   39.8310 C.3   118  ALA118      0.0304
    107  N         23.9780   88.9640   41.5190 N.am  119  ALA119     -0.1980
    108  CA        24.8050   89.2850   42.6700 C.3   119  ALA119      0.1597
    109  C         26.2960   89.0910   42.4100 C.2   119  ALA119      0.2287
    110  O         27.1000   89.7950   42.9280 O.2   119  ALA119     -0.2864
    111  CB        24.3500   88.4320   43.8550 C.3   119  ALA119      0.0319
    112  N         25.5730   93.4050   39.1930 N.3   123  TYR123     -0.1241
    113  CA        25.6680   94.5050   40.1330 C.3   123  TYR123      0.1605
    114  C         27.1090   94.8930   40.4000 C.2   123  TYR123      0.2264
    115  O         27.4280   96.1050   40.4600 O.2   123  TYR123     -0.2867
    116  CB        24.8240   94.2700   41.3720 C.3   123  TYR123      0.0534
    117  CG        23.3890   94.6650   41.0970 C.ar  123  TYR123     -0.0201
    118  CD1       22.9960   95.9990   41.1730 C.ar  123  TYR123     -0.0009
    119  CD2       22.4450   93.7270   40.6640 C.ar  123  TYR123     -0.0009
    120  CE1       21.7050   96.3950   40.8150 C.ar  123  TYR123      0.0417
    121  CE2       21.1550   94.1190   40.3060 C.ar  123  TYR123      0.0417
    122  CZ        20.8050   95.4520   40.3800 C.ar  123  TYR123      0.1957
    123  OH        19.5840   95.8830   39.9620 O.3   123  TYR123     -0.2866
    124  N         28.7740   98.4940   39.6690 N.3   127  ARG127     -0.1245
    125  CA        29.4430   99.2020   40.7760 C.3   127  ARG127      0.1563
    126  C         30.9240   99.4680   40.4810 C.2   127  ARG127      0.2260
    127  O         31.5340  100.3820   41.0620 O.2   127  ARG127     -0.2867
    128  CB        29.3010   98.4310   42.0870 C.3   127  ARG127      0.0307
    129  CG        27.8930   98.4570   42.6650 C.3   127  ARG127      0.0489
    130  CD        27.5260   99.7970   43.2850 C.3   127  ARG127      0.2205
    131  NE        26.1030   99.8560   43.6130 N.pl3 127  ARG127     -0.0865
    132  CZ        25.4440  100.9750   43.8900 C.cat 127  ARG127      0.5346
    133  NH1       26.0910  102.1270   43.8940 N.pl3 127  ARG127      0.1354
    134  NH2       24.1240  100.9610   44.0370 N.pl3 127  ARG127      0.1354
    135  N         12.4810  101.0170   47.6520 N.3   173  ARG173     -0.1245
    136  CA        13.1240   99.8750   48.3010 C.3   173  ARG173      0.1563
    137  C         13.7890  100.5600   49.5210 C.2   173  ARG173      0.2260
    138  O         14.4060  101.6310   49.3840 O.2   173  ARG173     -0.2867
    139  CB        14.1710   99.2520   47.3680 C.3   173  ARG173      0.0307
    140  CG        14.7180   97.8660   47.7570 C.3   173  ARG173      0.0489
    141  CD        13.6360   96.7890   47.7720 C.3   173  ARG173      0.2205
    142  NE        12.9830   96.5540   46.4770 N.pl3 173  ARG173     -0.0865
    143  CZ        13.2870   95.5490   45.6510 C.cat 173  ARG173      0.5346
    144  NH1       14.2480   94.6890   45.9830 N.pl3 173  ARG173      0.1354
    145  NH2       12.5950   95.3570   44.5210 N.pl3 173  ARG173      0.1354
    146  N         17.3920  102.2850   49.6390 N.3   176  GLU176     -0.1245
    147  CA        17.6700  102.6000   48.2740 C.3   176  GLU176      0.1567
    148  C         17.4860  104.0890   48.1140 C.2   176  GLU176      0.2260
    149  O         16.4980  104.6460   48.5450 O.2   176  GLU176     -0.2867
    150  CB        16.6550  101.8590   47.4230 C.3   176  GLU176      0.0388
    151  CG        16.8000  101.9440   45.9360 C.3   176  GLU176      0.1160
    152  CD        15.8420  100.9770   45.2880 C.2   176  GLU176      0.3649
    153  OE1       16.1490   99.7680   45.2490 O.co2 176  GLU176     -0.2457
    154  OE2       14.7490  101.4030   44.8770 O.co2 176  GLU176     -0.2457
@<TRIPOS>BOND
     1     4     3    2
     2     1     2    1
     3     3     2    1
     4   101    99    1
     5   102   103    1
     6   112   113    1
     7   103   106    1
     8   103   104    1
     9     2     5    1
    10   124   125    1
    11    92    93    1
    12    92    91    1
    13    92    95    1
    14    99   100    1
    15    99    98    2
    16    93    94    2
    17   123   122    1
    18   113   114    1
    19   113   116    1
    20     8    10   ar
    21     8     6   ar
    22   121   122   ar
    23   121   119   ar
    24   105   104    2
    25   122   120   ar
    26   114   115    2
    27    98    97    1
    28   104   107   am
    29    10     9   ar
    30   126   125    1
    31   126   127    2
    32   119   117   ar
    33     6     5    1
    34     6     7   ar
    35   125   128    1
    36    95    96    1
    37   120   118   ar
    38    96    97    1
    39   117   118   ar
    40   117   116    1
    41     9     7   ar
    42   107   108    1
    43   128   129    1
    44   109   108    1
    45   109   110    2
    46   129   130    1
    47   108   111    1
    48   130   131    1
    49    88    86   ar
    50    88    89   ar
    51    86    84   ar
    52   131   132    2
    53    19    17   ar
    54   132   133    1
    55   132   134    1
    56    61    60    1
    57    90    89    1
    58    89    87   ar
    59    69    68    2
    60   145   143    1
    61    17    16    1
    62    17    18   ar
    63    84    83    1
    64    84    85   ar
    65    83    80    1
    66    58    60   ar
    67    58    56   ar
    68    82    81    2
    69    16    15    1
    70   154   152   ar
    71    60    59   ar
    72    68    70   am
    73    68    67    1
    74   153   152   ar
    75   152   151    1
    76    81    80    1
    77    87    85   ar
    78    67    66    1
    79    80    79    1
    80   143   144    1
    81   143   142    2
    82    56    55   ar
    83   151   150    1
    84    66    63    1
    85    59    57   ar
    86    15    12    1
    87    11    12    1
    88   142   141    1
    89    33    31   ar
    90    33    32   ar
    91    12    13    1
    92    31    29   ar
    93    48    46    1
    94    65    64    2
    95    55    57   ar
    96    55    54    1
    97   139   140    1
    98   139   136    1
    99    63    64    1
   100    63    62    1
   101   150   147    1
   102    78    77    1
   103    32    30   ar
   104    74    73    2
   105    75    76    1
   106    75    72    1
   107   135   136    1
   108   140   141    1
   109    73    72    1
   110   148   147    1
   111   148   149    2
   112    13    14    2
   113    49    47    1
   114    76    77    1
   115   147   146    1
   116   136   137    1
   117    54    51    1
   118    29    28   ar
   119    29    27   ar
   120    45    44    2
   121    51    50    1
   122    51    52    1
   123    46    47    1
   124    46    43    1
   125    53    52    2
   126    41    39    1
   127    72    71    1
   128    30    27   ar
   129    40    38    1
   130    44    50   am
   131    44    43    1
   132    28    26   ar
   133    27    25   ar
   134   138   137    2
   135    43    42    1
   136    39    38    1
   137    38    35    1
   138    37    36    2
   139    26    25   ar
   140    25    24    1
   141    35    36    1
   142    35    34    1
   143    24    21    1
   144    21    20    1
   145    21    22    1
   146    22    23    2
