@<TRIPOS>MOLECULE
tmp/1ki8B00.pdb
 164 157 0 0 0
SMALL
GASTEIGER

@<TRIPOS>ATOM
      1  N         16.7790   97.0180   38.3870 N.3    13  HIS13      -0.1241
      2  CA        15.7160   97.1630   39.3830 C.3    13  HIS13       0.1621
      3  C         14.7630   98.2870   38.9350 C.2    13  HIS13       0.2264
      4  O         15.1190   99.1040   38.0640 O.2    13  HIS13      -0.2867
      5  CB        16.3280   97.4790   40.7730 C.3    13  HIS13       0.0745
      6  CG        17.2460   98.6720   40.7970 C.ar   13  HIS13       0.0817
      7  ND1       18.5460   98.6300   40.3300 N.ar   13  HIS13      -0.2268
      8  CD2       17.0360   99.9470   41.1970 C.ar   13  HIS13       0.1154
      9  CE1       19.0910   99.8280   40.4300 C.ar   13  HIS13       0.1986
     10  NE2       18.1940  100.6450   40.9530 N.ar   13  HIS13      -0.2212
     11  N         12.9740   87.7900   46.2080 N.3    35  GLU35      -0.1245
     12  CA        14.2750   88.3450   46.4910 C.3    35  GLU35       0.1567
     13  C         14.3770   88.1050   47.9840 C.2    35  GLU35       0.2260
     14  O         13.3860   88.2280   48.7020 O.2    35  GLU35      -0.2867
     15  CB        14.3010   89.8320   46.1960 C.3    35  GLU35       0.0388
     16  CG        14.4530   90.1270   44.7200 C.3    35  GLU35       0.1160
     17  CD        14.6880   91.5650   44.4620 C.2    35  GLU35       0.3649
     18  OE1       13.8900   92.3820   44.9410 O.co2  35  GLU35      -0.2457
     19  OE2       15.6730   91.8950   43.7990 O.co2  35  GLU35      -0.2457
     20  N         19.0110   90.2500   53.2540 N.3    40  TRP40      -0.1241
     21  CA        19.6920   91.5230   52.9900 C.3    40  TRP40       0.1605
     22  C         19.4300   92.5990   54.0790 C.2    40  TRP40       0.2264
     23  O         20.2670   93.4700   54.3060 O.2    40  TRP40      -0.2867
     24  CB        19.2280   92.0900   51.6400 C.3    40  TRP40       0.0550
     25  CG        19.3470   91.1630   50.4470 C.ar   40  TRP40       0.0003
     26  CD1       20.2180   90.1220   50.2980 C.ar   40  TRP40       0.0946
     27  CD2       18.6760   91.2980   49.1880 C.ar   40  TRP40       0.0152
     28  NE1       20.1590   89.6330   49.0240 N.ar   40  TRP40      -0.2442
     29  CE2       19.2140   90.3400   48.3160 C.ar   40  TRP40       0.0810
     30  CE3       17.6740   92.1610   48.7060 C.ar   40  TRP40       0.0012
     31  CZ2       18.7960   90.2110   46.9740 C.ar   40  TRP40       0.0191
     32  CZ3       17.2640   92.0370   47.3740 C.ar   40  TRP40       0.0001
     33  CH2       17.8300   91.0690   46.5230 C.ar   40  TRP40       0.0015
     34  N         21.0890   96.9650   51.5470 N.3    49  ILE49      -0.1245
     35  CA        20.7340   97.8150   50.4170 C.3    49  ILE49       0.1561
     36  C         20.9510   99.2690   50.7700 C.2    49  ILE49       0.2260
     37  O         21.4720  100.0390   49.9720 O.2    49  ILE49      -0.2867
     38  CB        19.2570   97.6030   50.0080 C.3    49  ILE49       0.0252
     39  CG1       19.0480   96.1740   49.5420 C.3    49  ILE49       0.0019
     40  CG2       18.8640   98.5610   48.9030 C.3    49  ILE49       0.0019
     41  CD1       17.5990   95.8170   49.3160 C.3    49  ILE49       0.0001
     42  N         24.5540  100.0180   50.4990 N.3    52  ILE52      -0.1231
     43  CA        25.0180  100.1670   49.1320 C.3    52  ILE52       0.1692
     44  C         24.7730  101.5710   48.6160 C.2    52  ILE52       0.2592
     45  O         25.6670  102.2480   48.0980 O.2    52  ILE52      -0.2718
     46  CB        24.2990   99.1300   48.2050 C.3    52  ILE52       0.0266
     47  CG1       24.8020   97.7260   48.5280 C.3    52  ILE52       0.0019
     48  CG2       24.4980   99.4550   46.7310 C.3    52  ILE52       0.0020
     49  CD1       24.0310   96.6330   47.8600 C.3    52  ILE52       0.0001
     50  N         23.5460  102.0230   48.7730 N.am   53  TYR53      -0.1976
     51  CA        23.2050  103.3280   48.2890 C.3    53  TYR53       0.1639
     52  C         23.8680  104.4290   49.0770 C.2    53  TYR53       0.2290
     53  O         24.1860  105.4760   48.5160 O.2    53  TYR53      -0.2864
     54  CB        21.6960  103.4480   48.2130 C.3    53  TYR53       0.0560
     55  CG        21.1670  102.6190   47.0640 C.ar   53  TYR53      -0.0198
     56  CD1       21.1320  103.1560   45.7790 C.ar   53  TYR53      -0.0009
     57  CD2       20.7330  101.3040   47.2440 C.ar   53  TYR53      -0.0009
     58  CE1       20.6820  102.4280   44.7030 C.ar   53  TYR53       0.0417
     59  CE2       20.2740  100.5520   46.1590 C.ar   53  TYR53       0.0417
     60  CZ        20.2540  101.1380   44.8850 C.ar   53  TYR53       0.1957
     61  OH        19.7990  100.4810   43.7600 O.3    53  TYR53      -0.2866
     62  N         28.1520   93.1470   48.2790 N.3    77  GLN77      -0.1245
     63  CA        27.8110   92.2580   47.1630 C.3    77  GLN77       0.1566
     64  C         27.8820   90.7590   47.5200 C.2    77  GLN77       0.2260
     65  O         27.1810   89.9420   46.9350 O.2    77  GLN77      -0.2867
     66  CB        28.6750   92.5710   45.9380 C.3    77  GLN77       0.0367
     67  CG        28.1490   93.7430   45.1150 C.3    77  GLN77       0.0905
     68  CD        26.6720   93.5870   44.7460 C.2    77  GLN77       0.2608
     69  OE1       25.8800   94.5030   44.9160 O.2    77  GLN77      -0.2717
     70  NE2       26.3110   92.4400   44.2330 N.am   77  GLN77      -0.0878
     71  N         24.6370   90.1080   49.3690 N.3    80  MET80      -0.1245
     72  CA        23.5090   90.1320   48.4340 C.3    80  MET80       0.1570
     73  C         23.3510   88.8200   47.6940 C.2    80  MET80       0.2261
     74  O         22.2500   88.2990   47.5530 O.2    80  MET80      -0.2867
     75  CB        23.6380   91.2640   47.4070 C.3    80  MET80       0.0387
     76  CG        23.5960   92.6900   47.9780 C.3    80  MET80       0.0595
     77  SD        22.0790   93.1660   48.8570 S.3    80  MET80      -0.1393
     78  CE        21.0910   93.8930   47.6060 C.3    80  MET80       0.0692
     79  N         21.2840   83.3250   46.9810 N.3    84  TYR84      -0.1241
     80  CA        21.2500   82.9150   45.5880 C.3    84  TYR84       0.1605
     81  C         22.2180   81.7750   45.3270 C.2    84  TYR84       0.2264
     82  O         21.8540   80.7390   44.7340 O.2    84  TYR84      -0.2867
     83  CB        21.5760   84.1100   44.6820 C.3    84  TYR84       0.0534
     84  CG        20.4280   85.0670   44.5520 C.ar   84  TYR84      -0.0201
     85  CD1       20.2340   86.0870   45.4820 C.ar   84  TYR84      -0.0009
     86  CD2       19.4600   84.8900   43.5520 C.ar   84  TYR84      -0.0009
     87  CE1       19.0850   86.9110   45.4270 C.ar   84  TYR84       0.0417
     88  CE2       18.3160   85.7000   43.4900 C.ar   84  TYR84       0.0417
     89  CZ        18.1310   86.7080   44.4260 C.ar   84  TYR84       0.1957
     90  OH        17.0080   87.5150   44.3360 O.3    84  TYR84      -0.2866
     91  N         15.3560   87.1110   40.0590 N.3   114  ARG114     -0.1231
     92  CA        16.7690   87.3210   39.8120 C.3   114  ARG114      0.1694
     93  C         17.5190   85.9960   39.7640 C.2   114  ARG114      0.2592
     94  O         16.9920   84.9390   40.1290 O.2   114  ARG114     -0.2718
     95  CB        17.4120   88.3000   40.8240 C.3   114  ARG114      0.0321
     96  CG        16.6120   89.5640   41.1220 C.3   114  ARG114      0.0489
     97  CD        17.4550   90.7150   41.6400 C.3   114  ARG114      0.2205
     98  NE        18.1140   91.3720   40.5250 N.pl3 114  ARG114     -0.0865
     99  CZ        17.7590   92.5310   39.9890 C.cat 114  ARG114      0.5346
    100  NH1       16.7430   93.2390   40.4520 N.pl3 114  ARG114      0.1354
    101  NH2       18.4050   92.9440   38.9310 N.pl3 114  ARG114      0.1354
    102  N         18.7620   86.0560   39.3170 N.am  115  HIS115     -0.1976
    103  CA        19.5870   84.8670   39.1920 C.3   115  HIS115      0.1656
    104  C         20.9350   85.1310   39.8460 C.2   115  HIS115      0.2291
    105  O         21.2970   86.2880   40.1060 O.2   115  HIS115     -0.2864
    106  CB        19.7720   84.5760   37.7080 C.3   115  HIS115      0.0771
    107  CG        20.6860   83.4380   37.4060 C.ar  115  HIS115      0.0820
    108  ND1       20.2310   82.1960   37.0270 N.ar  115  HIS115     -0.2267
    109  CD2       22.0360   83.3650   37.3670 C.ar  115  HIS115      0.1154
    110  CE1       21.2550   81.4130   36.7660 C.ar  115  HIS115      0.1986
    111  NE2       22.3640   82.0980   36.9640 N.ar  115  HIS115     -0.2212
    112  N         23.2210   88.0710   38.9580 N.3   118  ALA118     -0.1231
    113  CA        22.8460   89.4310   39.3450 C.3   118  ALA118      0.1694
    114  C         23.7900   89.9060   40.4530 C.2   118  ALA118      0.2591
    115  O         24.3760   90.9720   40.3610 O.2   118  ALA118     -0.2718
    116  CB        21.3900   89.4700   39.8430 C.3   118  ALA118      0.0304
    117  N         23.9910   89.0510   41.4540 N.am  119  ALA119     -0.1980
    118  CA        24.8520   89.3490   42.5950 C.3   119  ALA119      0.1597
    119  C         26.3570   89.1690   42.3330 C.2   119  ALA119      0.2287
    120  O         27.1750   89.8870   42.8630 O.2   119  ALA119     -0.2864
    121  CB        24.4060   88.4940   43.7810 C.3   119  ALA119      0.0319
    122  N         25.4350   93.5170   39.1620 N.3   123  TYR123     -0.1241
    123  CA        25.5840   94.6520   40.0520 C.3   123  TYR123      0.1605
    124  C         27.0540   94.9420   40.2750 C.2   123  TYR123      0.2264
    125  O         27.4710   96.1090   40.2210 O.2   123  TYR123     -0.2867
    126  CB        24.7560   94.5140   41.3280 C.3   123  TYR123      0.0534
    127  CG        23.3250   94.9330   41.0590 C.ar  123  TYR123     -0.0201
    128  CD1       22.4040   94.0320   40.5110 C.ar  123  TYR123     -0.0009
    129  CD2       22.9210   96.2680   41.2240 C.ar  123  TYR123     -0.0009
    130  CE1       21.1440   94.4430   40.1270 C.ar  123  TYR123      0.0417
    131  CE2       21.6460   96.6880   40.8330 C.ar  123  TYR123      0.0417
    132  CZ        20.7700   95.7630   40.2800 C.ar  123  TYR123      0.1957
    133  OH        19.5350   96.1620   39.8210 O.3   123  TYR123     -0.2866
    134  N         28.7250   98.4280   39.5840 N.3   127  ARG127     -0.1245
    135  CA        29.4220   99.1790   40.6410 C.3   127  ARG127      0.1563
    136  C         30.8550   99.4870   40.2590 C.2   127  ARG127      0.2260
    137  O         31.4220  100.4880   40.7150 O.2   127  ARG127     -0.2867
    138  CB        29.3600   98.4640   41.9950 C.3   127  ARG127      0.0307
    139  CG        27.9770   98.5280   42.6590 C.3   127  ARG127      0.0489
    140  CD        27.5210   99.9620   42.8090 C.3   127  ARG127      0.2205
    141  NE        26.1500  100.0710   43.3070 N.pl3 127  ARG127     -0.0865
    142  CZ        25.5190  101.2240   43.5310 C.cat 127  ARG127      0.5346
    143  NH1       26.1360  102.3770   43.2940 N.pl3 127  ARG127      0.1354
    144  NH2       24.2700  101.2330   43.9870 N.pl3 127  ARG127      0.1354
    145  N         12.3620  102.0040   47.7510 N.3   173  ARG173     -0.1245
    146  CA        13.0020  100.8410   48.3790 C.3   173  ARG173      0.1563
    147  C         13.5430  101.4070   49.7150 C.2   173  ARG173      0.2260
    148  O         13.6990  102.6370   49.8700 O.2   173  ARG173     -0.2867
    149  CB        14.1160  100.2690   47.4840 C.3   173  ARG173      0.0307
    150  CG        14.9020   99.0190   47.9960 C.3   173  ARG173      0.0489
    151  CD        14.1000   97.7400   48.0120 C.3   173  ARG173      0.2205
    152  NE        14.0590   97.0710   46.7170 N.pl3 173  ARG173     -0.0865
    153  CZ        12.9970   96.4140   46.2520 C.cat 173  ARG173      0.5346
    154  NH1       11.8880   96.3580   46.9860 N.pl3 173  ARG173      0.1354
    155  NH2       13.0410   95.7810   45.0730 N.pl3 173  ARG173      0.1354
    156  N         17.5270  102.4470   49.5460 N.3   176  GLU176     -0.1245
    157  CA        17.7960  102.7890   48.1730 C.3   176  GLU176      0.1567
    158  C         17.8110  104.3040   48.1130 C.2   176  GLU176      0.2260
    159  O         17.2500  104.9750   48.9770 O.2   176  GLU176     -0.2867
    160  CB        16.6750  102.2390   47.2910 C.3   176  GLU176      0.0388
    161  CG        16.9740  102.2120   45.8140 C.3   176  GLU176      0.1160
    162  CD        15.8350  101.6180   44.9720 C.2   176  GLU176      0.3649
    163  OE1       15.5920  100.3850   45.0530 O.co2 176  GLU176     -0.2457
    164  OE2       15.2180  102.3880   44.1860 O.co2 176  GLU176     -0.2457
@<TRIPOS>BOND
     1   110   111   ar
     2   110   108   ar
     3   111   109   ar
     4   108   107   ar
     5   109   107   ar
     6   107   106    1
     7   106   103    1
     8     4     3    2
     9     1     2    1
    10   101    99    1
    11     3     2    1
    12   112   113    1
    13   122   123    1
    14   103   102    1
    15   103   104    1
    16   102    93   am
    17   113   116    1
    18   113   114    1
    19     2     5    1
    20   134   135    1
    21    93    92    1
    22    93    94    2
    23    92    91    1
    24    92    95    1
    25   133   132    1
    26   104   105    2
    27    99   100    1
    28    99    98    2
    29   123   124    1
    30   123   126    1
    31   130   132   ar
    32   130   128   ar
    33   125   124    2
    34   136   135    1
    35   136   137    2
    36   132   131   ar
    37     7     9   ar
    38     7     6   ar
    39   115   114    2
    40     9    10   ar
    41   114   117   am
    42   128   127   ar
    43    98    97    1
    44   135   138    1
    45     5     6    1
    46     6     8   ar
    47    95    96    1
    48   131   129   ar
    49    10     8   ar
    50   127   129   ar
    51   127   126    1
    52    96    97    1
    53   117   118    1
    54   138   139    1
    55   119   118    1
    56   119   120    2
    57   118   121    1
    58   139   140    1
    59   140   141    1
    60   143   142    1
    61   141   142    2
    62    88    86   ar
    63    88    89   ar
    64   142   144    1
    65    86    84   ar
    66    61    60    1
    67    19    17   ar
    68   164   162   ar
    69    70    68   am
    70    90    89    1
    71    89    87   ar
    72    17    16    1
    73    17    18   ar
    74    84    83    1
    75    84    85   ar
    76    83    80    1
    77    58    60   ar
    78    58    56   ar
    79    16    15    1
    80    82    81    2
    81    68    69    2
    82    68    67    1
    83    60    59   ar
    84   162   163   ar
    85   162   161    1
    86   155   153    1
    87    67    66    1
    88    81    80    1
    89    87    85   ar
    90    80    79    1
    91    56    55   ar
    92   161   160    1
    93    66    63    1
    94    59    57   ar
    95    15    12    1
    96    11    12    1
    97   153   152    2
    98   153   154    1
    99    12    13    1
   100    33    31   ar
   101    33    32   ar
   102   152   151    1
   103    48    46    1
   104    65    64    2
   105    31    29   ar
   106    55    57   ar
   107    55    54    1
   108    63    64    1
   109    63    62    1
   110   160   157    1
   111    32    30   ar
   112    75    76    1
   113    75    72    1
   114   149   150    1
   115   149   146    1
   116    74    73    2
   117    78    77    1
   118    73    72    1
   119   145   146    1
   120    49    47    1
   121    76    77    1
   122    13    14    2
   123   150   151    1
   124    45    44    2
   125   158   157    1
   126   158   159    2
   127   157   156    1
   128    46    47    1
   129    46    43    1
   130    54    51    1
   131    51    50    1
   132    51    52    1
   133    29    28   ar
   134    29    27   ar
   135   146   147    1
   136    72    71    1
   137    53    52    2
   138    44    50   am
   139    44    43    1
   140    30    27   ar
   141    40    38    1
   142    28    26   ar
   143    43    42    1
   144    27    25   ar
   145    41    39    1
   146    39    38    1
   147   147   148    2
   148    37    36    2
   149    38    35    1
   150    26    25   ar
   151    35    36    1
   152    35    34    1
   153    25    24    1
   154    24    21    1
   155    21    20    1
   156    21    22    1
   157    22    23    2
