@<TRIPOS>MOLECULE
tmp/1kibE00.pdb
 222 212 0 0 0
SMALL
GASTEIGER

@<TRIPOS>ATOM
      1  N        -23.2270    6.7190  -21.8530 N.3    10  PHE10      -0.1241
      2  CA       -23.9350    7.4840  -20.8520 C.3    10  PHE10       0.1605
      3  C        -23.3780    7.3880  -19.4510 C.2    10  PHE10       0.2264
      4  O        -23.1700    8.4180  -18.7910 O.2    10  PHE10      -0.2867
      5  CB       -25.4270    7.1140  -20.8460 C.3    10  PHE10       0.0534
      6  CG       -26.2680    8.0340  -19.9900 C.ar   10  PHE10      -0.0203
      7  CD1      -26.3040    7.8840  -18.6120 C.ar   10  PHE10      -0.0042
      8  CD2      -26.9600    9.0920  -20.5530 C.ar   10  PHE10      -0.0042
      9  CE1      -27.0170    8.7720  -17.8100 C.ar   10  PHE10      -0.0003
     10  CE2      -27.6670    9.9800  -19.7560 C.ar   10  PHE10      -0.0003
     11  CZ       -27.6940    9.8180  -18.3860 C.ar   10  PHE10      -0.0000
     12  N        -19.9150    9.0110  -19.3890 N.3    13  ASN13      -0.1225
     13  CA       -19.8640   10.4510  -19.6110 C.3    13  ASN13       0.1785
     14  C        -20.9870   11.3310  -19.1340 C.2    13  ASN13       0.2597
     15  O        -20.7710   12.5250  -18.9530 O.2    13  ASN13      -0.2718
     16  CB       -19.7090   10.7510  -21.0890 C.3    13  ASN13       0.1169
     17  CG       -18.4850   10.1410  -21.6590 C.2    13  ASN13       0.2627
     18  OD1      -18.5230    9.0300  -22.1940 O.2    13  ASN13      -0.2716
     19  ND2      -17.3620   10.8480  -21.5350 N.am   13  ASN13      -0.0877
     20  N        -22.1800   10.7860  -18.9350 N.am   14  CYS14      -0.1970
     21  CA       -23.3020   11.6370  -18.5530 C.3    14  CYS14       0.1712
     22  C        -23.8760   11.4540  -17.1650 C.2    14  CYS14       0.2296
     23  O        -24.3590   12.4290  -16.5580 O.2    14  CYS14      -0.2864
     24  CB       -24.4160   11.4630  -19.5730 C.3    14  CYS14       0.0983
     25  SG       -23.7510   11.2890  -21.2440 S.3    14  CYS14      -0.0798
     26  N        -22.7070   11.3590  -14.3520 N.3    16  ALA16      -0.1231
     27  CA       -22.1570   12.2480  -13.3350 C.3    16  ALA16       0.1694
     28  C        -23.1630   13.3570  -12.9900 C.2    16  ALA16       0.2592
     29  O        -23.3880   13.6630  -11.8110 O.2    16  ALA16      -0.2718
     30  CB       -20.8550   12.8550  -13.8320 C.3    16  ALA16       0.0304
     31  N        -23.7730   13.9520  -14.0160 N.am   17  CYS17      -0.1956
     32  CA       -24.7460   15.0230  -13.7940 C.3    17  CYS17       0.1843
     33  C        -26.1860   14.6160  -14.1110 C.2    17  CYS17       0.2625
     34  O        -27.1340   15.3340  -13.7510 O.2    17  CYS17      -0.2714
     35  CB       -24.4020   16.2310  -14.6560 C.3    17  CYS17       0.0997
     36  SG       -22.6830   16.6050  -14.6890 S.3    17  CYS17      -0.0797
     37  N        -26.3520   13.4800  -14.7880 N.am   18  HIS18      -0.1973
     38  CA       -27.6800   13.0400  -15.1650 C.3    18  HIS18       0.1656
     39  C        -27.9930   11.6280  -14.6890 C.2    18  HIS18       0.2291
     40  O        -28.6840   10.8930  -15.3780 O.2    18  HIS18      -0.2864
     41  CB       -27.8430   13.1150  -16.6990 C.3    18  HIS18       0.0771
     42  CG       -27.7110   14.5030  -17.2850 C.ar   18  HIS18       0.0820
     43  ND1      -28.6360   15.5070  -17.0740 N.ar   18  HIS18      -0.2267
     44  CD2      -26.7780   15.0330  -18.1130 C.ar   18  HIS18       0.1154
     45  CE1      -28.2800   16.5910  -17.7450 C.ar   18  HIS18       0.1986
     46  NE2      -27.1570   16.3310  -18.3820 N.ar   18  HIS18      -0.2212
     47  N        -31.0590   16.0810  -13.1860 N.3    23  ASN23      -0.1240
     48  CA       -30.0930   17.1210  -13.4830 C.3    23  ASN23       0.1653
     49  C        -29.5780   17.7140  -12.1760 C.2    23  ASN23       0.2266
     50  O        -30.2170   18.5590  -11.5490 O.2    23  ASN23      -0.2867
     51  CB       -30.6900   18.2290  -14.3230 C.3    23  ASN23       0.1155
     52  CG       -29.6310   19.1790  -14.8180 C.2    23  ASN23       0.2627
     53  OD1      -28.7380   19.5780  -14.0590 O.2    23  ASN23      -0.2716
     54  ND2      -29.7090   19.5430  -16.0950 N.am   23  ASN23      -0.0877
     55  N        -27.1630   19.7320  -11.6600 N.3    25  ILE25      -0.1231
     56  CA       -26.7320   21.1300  -11.6780 C.3    25  ILE25       0.1692
     57  C        -27.9400   22.0590  -11.7170 C.2    25  ILE25       0.2591
     58  O        -28.1870   22.8340  -10.7800 O.2    25  ILE25      -0.2718
     59  CB       -25.7930   21.4280  -12.8960 C.3    25  ILE25       0.0266
     60  CG1      -24.3720   20.9150  -12.6290 C.3    25  ILE25       0.0019
     61  CG2      -25.6970   22.9170  -13.1270 C.3    25  ILE25       0.0020
     62  CD1      -24.3160   19.5030  -12.0330 C.3    25  ILE25       0.0001
     63  N        -28.6940   21.9730  -12.8050 N.am   26  VAL26      -0.1980
     64  CA       -29.8810   22.7900  -12.9710 C.3    26  VAL26       0.1595
     65  C        -31.1360   21.9320  -12.8410 C.2    26  VAL26       0.2287
     66  O        -31.6800   21.4380  -13.8260 O.2    26  VAL26      -0.2864
     67  CB       -29.8610   23.4600  -14.3170 C.3    26  VAL26       0.0276
     68  CG1      -31.1110   24.2980  -14.4810 C.3    26  VAL26       0.0022
     69  CG2      -28.5940   24.2980  -14.4370 C.3    26  VAL26       0.0022
     70  N        -34.0550   21.1010  -15.4810 N.3    29  LYS29      -0.1231
     71  CA       -33.7440   20.7670  -16.8740 C.3    29  LYS29       0.1693
     72  C        -33.3300   19.2970  -16.9220 C.2    29  LYS29       0.2593
     73  O        -32.1770   18.9820  -17.1810 O.2    29  LYS29      -0.2718
     74  CB       -32.5940   21.6380  -17.3840 C.3    29  LYS29       0.0285
     75  CG       -32.8140   23.1410  -17.3210 C.3    29  LYS29       0.0035
     76  CD       -33.4230   23.6570  -18.6020 C.3    29  LYS29       0.0206
     77  CE       -33.4800   25.1890  -18.6420 C.3    29  LYS29       0.1093
     78  NZ       -32.1700   25.8960  -18.7560 N.3    29  LYS29      -0.1314
     79  N        -34.2650   18.3940  -16.6740 N.am   30  THR30      -0.1939
     80  CA       -33.9460   16.9750  -16.6670 C.3    30  THR30       0.2028
     81  C        -34.1190   16.3160  -18.0100 C.2    30  THR30       0.2642
     82  O        -34.4450   16.9710  -18.9820 O.2    30  THR30      -0.2714
     83  CB       -34.8130   16.2210  -15.6890 C.3    30  THR30       0.1808
     84  OG1      -36.0750   15.9450  -16.3020 O.3    30  THR30      -0.2208
     85  CG2      -35.0200   17.0530  -14.4300 C.3    30  THR30       0.0379
     86  N        -33.9100   15.0050  -18.0430 N.am   31  LEU31      -0.1977
     87  CA       -34.0180   14.2340  -19.2750 C.3    31  LEU31       0.1596
     88  C        -35.3390   13.4790  -19.4130 C.2    31  LEU31       0.2287
     89  O        -35.3850   12.4020  -20.0260 O.2    31  LEU31      -0.2864
     90  CB       -32.8610   13.2330  -19.3740 C.3    31  LEU31       0.0297
     91  CG       -31.4500   13.7750  -19.1930 C.3    31  LEU31       0.0022
     92  CD1      -30.4570   12.6950  -19.5240 C.3    31  LEU31       0.0001
     93  CD2      -31.2450   14.9600  -20.0950 C.3    31  LEU31       0.0001
     94  N        -39.7380   17.4320  -19.7990 N.3    35  ASP35      -0.1225
     95  CA       -38.7610   18.5200  -19.7970 C.3    35  ASP35       0.1805
     96  C        -38.0570   18.6270  -21.1350 C.2    35  ASP35       0.2597
     97  O        -37.8990   19.7110  -21.6840 O.2    35  ASP35      -0.2718
     98  CB       -37.7220   18.2990  -18.7010 C.3    35  ASP35       0.1424
     99  CG       -38.3020   18.4610  -17.3140 C.2    35  ASP35       0.3668
    100  OD1      -39.5180   18.7270  -17.1910 O.co2  35  ASP35      -0.2456
    101  OD2      -37.5440   18.3250  -16.3370 O.co2  35  ASP35      -0.2456
    102  N        -37.6260   17.4910  -21.6570 N.am   36  LEU36      -0.1979
    103  CA       -36.9420   17.4710  -22.9310 C.3    36  LEU36       0.1596
    104  C        -37.7840   18.2060  -23.9670 C.2    36  LEU36       0.2287
    105  O        -37.2620   18.9850  -24.7620 O.2    36  LEU36      -0.2864
    106  CB       -36.6960   16.0240  -23.3560 C.3    36  LEU36       0.0297
    107  CG       -35.2580   15.5150  -23.3640 C.3    36  LEU36       0.0022
    108  CD1      -34.4250   16.2120  -22.3160 C.3    36  LEU36       0.0001
    109  CD2      -35.2840   14.0200  -23.1370 C.3    36  LEU36       0.0001
    110  N        -37.8450   22.1870  -22.8730 N.3    39  TYR39      -0.1227
    111  CA       -36.6290   22.9750  -23.0760 C.3    39  TYR39       0.1736
    112  C        -35.6900   22.6820  -24.2390 C.2    39  TYR39       0.2595
    113  O        -34.9210   23.5560  -24.6290 O.2    39  TYR39      -0.2718
    114  CB       -35.7990   22.9730  -21.7960 C.3    39  TYR39       0.0548
    115  CG       -36.5810   23.2570  -20.5270 C.ar   39  TYR39      -0.0200
    116  CD1      -36.9740   22.2230  -19.6720 C.ar   39  TYR39      -0.0009
    117  CD2      -36.9350   24.5540  -20.1820 C.ar   39  TYR39      -0.0009
    118  CE1      -37.7030   22.4800  -18.5030 C.ar   39  TYR39       0.0417
    119  CE2      -37.6660   24.8180  -19.0090 C.ar   39  TYR39       0.0417
    120  CZ       -38.0450   23.7760  -18.1760 C.ar   39  TYR39       0.1957
    121  OH       -38.7590   24.0310  -17.0230 O.3    39  TYR39      -0.2866
    122  N        -35.7180   21.4810  -24.7970 N.am   40  LEU40      -0.1980
    123  CA       -34.8080   21.1790  -25.9030 C.3    40  LEU40       0.1596
    124  C        -35.3270   21.7040  -27.2250 C.2    40  LEU40       0.2287
    125  O        -36.4850   21.4750  -27.5820 O.2    40  LEU40      -0.2864
    126  CB       -34.5630   19.6730  -26.0100 C.3    40  LEU40       0.0297
    127  CG       -33.1120   19.2160  -25.8370 C.3    40  LEU40       0.0022
    128  CD1      -33.0290   17.7050  -25.9270 C.3    40  LEU40       0.0001
    129  CD2      -32.2600   19.8550  -26.9140 C.3    40  LEU40       0.0001
    130  N        -31.1790   16.0930  -29.3090 N.3    51  VAL51      -0.1245
    131  CA       -30.3190   15.6800  -28.2070 C.3    51  VAL51       0.1561
    132  C        -28.8810   15.6690  -28.6600 C.2    51  VAL51       0.2260
    133  O        -28.0280   16.2800  -28.0370 O.2    51  VAL51      -0.2867
    134  CB       -30.6730   14.2550  -27.7320 C.3    51  VAL51       0.0252
    135  CG1      -29.8600   13.8970  -26.5060 C.3    51  VAL51       0.0019
    136  CG2      -32.1630   14.1540  -27.4410 C.3    51  VAL51       0.0019
    137  N        -27.2800   19.0070  -28.8630 N.3    54  GLN54      -0.1231
    138  CA       -26.9660   19.5300  -27.5350 C.3    54  GLN54       0.1698
    139  C        -25.6620   18.9480  -27.0310 C.2    54  GLN54       0.2592
    140  O        -24.7720   19.6650  -26.5960 O.2    54  GLN54      -0.2718
    141  CB       -28.0670   19.1410  -26.5520 C.3    54  GLN54       0.0381
    142  CG       -27.8180   19.5680  -25.1050 C.3    54  GLN54       0.0905
    143  CD       -28.5350   20.8830  -24.7250 C.2    54  GLN54       0.2608
    144  OE1      -28.6210   21.2290  -23.5450 O.2    54  GLN54      -0.2717
    145  NE2      -29.0420   21.6120  -25.7250 N.am   54  GLN54      -0.0878
    146  N        -25.5810   17.6270  -27.0830 N.am   55  VAL55      -0.1980
    147  CA       -24.4020   16.8890  -26.6610 C.3    55  VAL55       0.1595
    148  C        -23.1290   17.3590  -27.3580 C.2    55  VAL55       0.2287
    149  O        -22.0760   17.4970  -26.7490 O.2    55  VAL55      -0.2864
    150  CB       -24.5750   15.3910  -26.9570 C.3    55  VAL55       0.0276
    151  CG1      -23.3340   14.6220  -26.5070 C.3    55  VAL55       0.0022
    152  CG2      -25.8250   14.8800  -26.2570 C.3    55  VAL55       0.0022
    153  N        -24.1930   23.4870  -23.6880 N.3    59  LYS59      -0.1231
    154  CA       -25.1080   24.6020  -23.4940 C.3    59  LYS59       0.1693
    155  C        -25.0520   25.1170  -22.0600 C.2    59  LYS59       0.2592
    156  O        -25.3200   24.3710  -21.1090 O.2    59  LYS59      -0.2718
    157  CB       -26.5250   24.1870  -23.8290 C.3    59  LYS59       0.0285
    158  CG       -27.5040   25.3180  -23.6440 C.3    59  LYS59       0.0035
    159  CD       -28.9020   24.9140  -24.0750 C.3    59  LYS59       0.0206
    160  CE       -29.9180   26.0010  -23.7350 C.3    59  LYS59       0.1093
    161  NZ       -29.6280   27.3220  -24.3680 N.3    59  LYS59      -0.1314
    162  N        -24.7310   26.3960  -21.8870 N.am   60  ASN60      -0.1960
    163  CA       -24.6250   26.9770  -20.5670 C.3    60  ASN60       0.1819
    164  C        -23.6840   26.1850  -19.7130 C.2    60  ASN60       0.2621
    165  O        -22.5420   25.9260  -20.1080 O.2    60  ASN60      -0.2715
    166  CB       -25.9920   27.1030  -19.9080 C.3    60  ASN60       0.1195
    167  CG       -26.8860   27.9810  -20.7370 C.2    60  ASN60       0.2630
    168  OD1      -26.4690   29.0350  -21.2260 O.2    60  ASN60      -0.2716
    169  ND2      -28.1370   27.5590  -20.9130 N.am   60  ASN60      -0.0877
    170  N        -24.1370   25.8070  -18.5340 N.am   61  ALA61      -0.1963
    171  CA       -23.3140   25.0450  -17.6220 C.3    61  ALA61       0.1728
    172  C        -22.8460   23.6950  -18.1990 C.2    61  ALA61       0.2616
    173  O        -21.8030   23.1840  -17.7870 O.2    61  ALA61      -0.2715
    174  CB       -24.0550   24.8040  -16.3270 C.3    61  ALA61       0.0334
    175  N        -23.5960   23.1300  -19.1510 N.am   62  MET62      -0.1964
    176  CA       -23.2460   21.8480  -19.7360 C.3    62  MET62       0.1722
    177  C        -22.2040   21.9420  -20.8280 C.2    62  MET62       0.2458
    178  O        -22.4110   22.6120  -21.8360 O.2    62  MET62      -0.2730
    179  CB       -24.4750   21.1680  -20.3160 C.3    62  MET62       0.0427
    180  CG       -24.1680   19.7790  -20.8400 C.3    62  MET62       0.0599
    181  SD       -25.5760   18.9070  -21.4720 S.3    62  MET62      -0.1393
    182  CE       -24.8400   18.1160  -22.8600 C.3    62  MET62       0.0692
    183  N        -21.0600   21.2520  -20.6530 N.am   63  PRO63      -0.2727
    184  CA       -20.0050   21.2880  -21.6800 C.3    63  PRO63       0.1402
    185  C        -20.4250   20.4560  -22.9100 C.2    63  PRO63       0.2269
    186  O        -21.3390   19.6220  -22.8490 O.2    63  PRO63      -0.2865
    187  CB       -18.8200   20.6640  -20.9650 C.3    63  PRO63       0.0296
    188  CG       -19.4850   19.5910  -20.1320 C.3    63  PRO63       0.0237
    189  CD       -20.7040   20.3150  -19.5610 C.3    63  PRO63       0.0939
    190  N        -19.3620   17.7850  -26.0730 N.3    65  PHE65      -0.1241
    191  CA       -18.4450   16.6550  -26.1630 C.3    65  PHE65       0.1605
    192  C        -17.8440   16.4830  -27.5450 C.2    65  PHE65       0.2264
    193  O        -17.3480   15.4120  -27.8720 O.2    65  PHE65      -0.2867
    194  CB       -19.1770   15.3750  -25.7460 C.3    65  PHE65       0.0534
    195  CG       -19.5550   15.3440  -24.2880 C.ar   65  PHE65      -0.0203
    196  CD1      -20.5320   16.1950  -23.7830 C.ar   65  PHE65      -0.0042
    197  CD2      -18.8990   14.4860  -23.4050 C.ar   65  PHE65      -0.0042
    198  CE1      -20.8450   16.1960  -22.4230 C.ar   65  PHE65      -0.0003
    199  CE2      -19.2050   14.4780  -22.0460 C.ar   65  PHE65      -0.0003
    200  CZ       -20.1780   15.3350  -21.5580 C.ar   65  PHE65      -0.0000
    201  N        -16.0700   12.8170  -27.7470 N.3    69  LEU69      -0.1245
    202  CA       -16.7720   11.6560  -28.2870 C.3    69  LEU69       0.1561
    203  C        -16.7640   11.6090  -29.8080 C.2    69  LEU69       0.2260
    204  O        -16.6810   12.6500  -30.4650 O.2    69  LEU69      -0.2867
    205  CB       -18.2150   11.6560  -27.7760 C.3    69  LEU69       0.0270
    206  CG       -18.5620   10.8120  -26.5500 C.3    69  LEU69       0.0019
    207  CD1      -17.3590   10.6630  -25.6540 C.3    69  LEU69       0.0001
    208  CD2      -19.7160   11.4370  -25.8160 C.3    69  LEU69       0.0001
    209  N        -25.4180    7.6390  -27.7920 N.3    77  VAL77      -0.1245
    210  CA       -25.8890    8.1150  -26.5000 C.3    77  VAL77       0.1561
    211  C        -27.1900    8.9170  -26.6000 C.2    77  VAL77       0.2260
    212  O        -28.0500    8.8270  -25.7200 O.2    77  VAL77      -0.2867
    213  CB       -24.8160    8.9780  -25.7870 C.3    77  VAL77       0.0252
    214  CG1      -24.6510   10.2970  -26.5050 C.3    77  VAL77       0.0019
    215  CG2      -25.2020    9.1980  -24.3270 C.3    77  VAL77       0.0019
    216  N        -30.6510    8.1800  -24.6710 N.3    81  VAL81      -0.1245
    217  CA       -31.4070    9.1540  -23.9170 C.3    81  VAL81       0.1561
    218  C        -32.8450    9.1760  -24.3560 C.2    81  VAL81       0.2260
    219  O        -33.7510    9.1140  -23.5320 O.2    81  VAL81      -0.2867
    220  CB       -30.8180   10.5680  -24.0850 C.3    81  VAL81       0.0252
    221  CG1      -31.6780   11.5990  -23.3390 C.3    81  VAL81       0.0019
    222  CG2      -29.3730   10.5880  -23.5790 C.3    81  VAL81       0.0019
@<TRIPOS>BOND
     1   204   203    2
     2   203   202    1
     3   130   131    1
     4   137   138    1
     5   132   131    1
     6   132   133    2
     7   202   205    1
     8   202   201    1
     9   131   134    1
    10   193   192    2
    11   209   210    1
    12   205   206    1
    13   134   136    1
    14   134   135    1
    15   125   124    2
    16   192   191    1
    17   138   139    1
    18   138   141    1
    19   148   149    2
    20   148   147    1
    21   124   123    1
    22   146   139   am
    23   146   147    1
    24   139   140    2
    25   150   147    1
    26   150   151    1
    27   150   152    1
    28   129   127    1
    29   211   210    1
    30   211   212    2
    31   141   142    1
    32   206   208    1
    33   206   207    1
    34   214   213    1
    35   210   213    1
    36   191   190    1
    37   191   194    1
    38   126   123    1
    39   126   127    1
    40   128   127    1
    41   123   122    1
    42   213   215    1
    43   194   195    1
    44   145   143   am
    45   142   143    1
    46   122   112   am
    47   105   104    2
    48   143   144    2
    49   216   217    1
    50   113   112    2
    51   161   160    1
    52   218   217    1
    53   218   219    2
    54   195   196   ar
    55   195   197   ar
    56   112   111    1
    57   220   217    1
    58   220   222    1
    59   220   221    1
    60   159   160    1
    61   159   158    1
    62   104   103    1
    63   157   158    1
    64   157   154    1
    65   196   198   ar
    66   153   154    1
    67   154   155    1
    68   197   199   ar
    69   107   106    1
    70   107   109    1
    71   107   108    1
    72   106   103    1
    73   111   110    1
    74   111   114    1
    75   103   102    1
    76   185   186    2
    77   185   184    1
    78   182   181    1
    79   198   200   ar
    80    18    17    2
    81   155   162   am
    82   155   156    2
    83   199   200   ar
    84   162   163    1
    85     1     2    1
    86   178   177    2
    87   114   115    1
    88    97    96    2
    89   184   187    1
    90   184   183    1
    91    17    19   am
    92    17    16    1
    93   102    96   am
    94   181   180    1
    95    25    24    1
    96   168   167    2
    97    96    95    1
    98    16    13    1
    99   187   188    1
   100   169   167   am
   101     2     5    1
   102     2     3    1
   103     5     6    1
   104   180   179    1
   105   177   183   am
   106   177   176    1
   107   167   166    1
   108   183   189    1
   109   163   166    1
   110   163   164    1
   111     8     6   ar
   112     8    10   ar
   113   115   117   ar
   114   115   116   ar
   115   179   176    1
   116   117   119   ar
   117   188   189    1
   118   165   164    2
   119    93    91    1
   120    89    88    2
   121     6     7   ar
   122    94    95    1
   123    95    98    1
   124    10    11   ar
   125   176   175    1
   126   164   170   am
   127   116   118   ar
   128    13    12    1
   129    13    14    1
   130    24    21    1
   131    92    91    1
   132     3     4    2
   133    88    87    1
   134    90    87    1
   135    90    91    1
   136    87    86    1
   137   175   172   am
   138    14    15    2
   139    14    20   am
   140   119   120   ar
   141    82    81    2
   142    20    21    1
   143    78    77    1
   144    98    99    1
   145    77    76    1
   146     7     9   ar
   147    76    75    1
   148    21    22    1
   149   170   171    1
   150   118   120   ar
   151    11     9   ar
   152    46    44   ar
   153    46    45   ar
   154   172   173    2
   155   172   171    1
   156   120   121    1
   157    44    42   ar
   158    86    81   am
   159    81    80    1
   160    45    43   ar
   161   171   174    1
   162    74    75    1
   163    74    71    1
   164    99   100   ar
   165    99   101   ar
   166    42    43   ar
   167    42    41    1
   168    73    72    2
   169    22    23    2
   170    72    71    1
   171    72    79   am
   172    71    70    1
   173    41    38    1
   174    79    80    1
   175    80    83    1
   176    84    83    1
   177    54    52   am
   178    83    85    1
   179    40    39    2
   180    38    37    1
   181    38    39    1
   182    52    51    1
   183    52    53    2
   184    37    33   am
   185    36    35    1
   186    35    32    1
   187    68    67    1
   188    69    67    1
   189    26    27    1
   190    51    48    1
   191    67    64    1
   192    33    32    1
   193    33    34    2
   194    31    32    1
   195    31    28   am
   196    30    27    1
   197    66    65    2
   198    48    47    1
   199    48    49    1
   200    27    28    1
   201    61    59    1
   202    28    29    2
   203    64    65    1
   204    64    63    1
   205    59    60    1
   206    59    56    1
   207    63    57   am
   208    60    62    1
   209    49    50    2
   210    57    56    1
   211    57    58    2
   212    56    55    1
