@<TRIPOS>MOLECULE
tmp/1kicB00.pdb
 161 158 0 0 0
SMALL
GASTEIGER

@<TRIPOS>ATOM
      1  N         14.7700   -2.1030   51.0900 N.3    11  ASN11      -0.1225
      2  CA        14.7500   -1.2830   49.9000 C.3    11  ASN11       0.1785
      3  C         15.8390   -1.8270   48.9910 C.2    11  ASN11       0.2597
      4  O         16.6050   -2.7080   49.3880 O.2    11  ASN11      -0.2718
      5  CB        15.0480    0.1610   50.2190 C.3    11  ASN11       0.1169
      6  CG        14.2780    1.0940   49.3440 C.2    11  ASN11       0.2627
      7  OD1       14.0660    0.8360   48.1440 O.2    11  ASN11      -0.2716
      8  ND2       13.8370    2.1950   49.9340 N.am   11  ASN11      -0.0877
      9  N         15.9300   -1.3070   47.7770 N.am   12  LEU12      -0.1966
     10  CA        16.9110   -1.8310   46.8370 C.3    12  LEU12       0.1728
     11  C         18.3420   -1.7640   47.3530 C.2    12  LEU12       0.2616
     12  O         19.1110   -2.7470   47.1830 O.2    12  LEU12      -0.2715
     13  CB        16.7970   -1.0990   45.4820 C.3    12  LEU12       0.0311
     14  CG        15.4390   -1.2150   44.7680 C.3    12  LEU12       0.0022
     15  CD1       15.4040   -0.3280   43.5260 C.3    12  LEU12       0.0001
     16  CD2       15.1910   -2.6400   44.3630 C.3    12  LEU12       0.0001
     17  N         18.7330   -0.6570   47.9980 N.am   13  ASP13      -0.1957
     18  CA        20.1190   -0.5850   48.4580 C.3    13  ASP13       0.1840
     19  C         20.3940   -1.5010   49.6560 C.2    13  ASP13       0.2622
     20  O         21.5380   -1.8950   49.8800 O.2    13  ASP13      -0.2715
     21  CB        20.5750    0.8640   48.6860 C.3    13  ASP13       0.1450
     22  CG        19.8560    1.5440   49.8050 C.2    13  ASP13       0.3671
     23  OD1       18.6120    1.4540   49.8810 O.co2  13  ASP13      -0.2456
     24  OD2       20.5510    2.1990   50.5970 O.co2  13  ASP13      -0.2456
     25  N         19.3570   -1.8270   50.4240 N.am   14  ASP14      -0.1971
     26  CA        19.5270   -2.7620   51.5330 C.3    14  ASP14       0.1709
     27  C         19.9550   -4.1110   50.9210 C.2    14  ASP14       0.2293
     28  O         20.7530   -4.8510   51.5000 O.2    14  ASP14      -0.2864
     29  CB        18.1820   -2.9750   52.2730 C.3    14  ASP14       0.1436
     30  CG        17.6930   -1.7140   52.9770 C.2    14  ASP14       0.3671
     31  OD1       17.9600   -1.5380   54.2040 O.co2  14  ASP14      -0.2456
     32  OD2       17.0640   -0.8930   52.2840 O.co2  14  ASP14      -0.2456
     33  N         11.0920    0.3940   54.6480 N.3    39  ASP39      -0.1239
     34  CA        11.2160    0.7690   53.2250 C.3    39  ASP39       0.1674
     35  C         10.5040   -0.2650   52.3630 C.2    39  ASP39       0.2266
     36  O         10.5730   -0.2300   51.1280 O.2    39  ASP39      -0.2867
     37  CB        12.6810    0.7610   52.7730 C.3    39  ASP39       0.1410
     38  CG        13.4660    1.9370   53.2820 C.2    39  ASP39       0.3668
     39  OD1       13.3950    2.2240   54.4810 O.co2  39  ASP39      -0.2456
     40  OD2       14.1790    2.5700   52.4840 O.co2  39  ASP39      -0.2456
     41  N          7.5650    5.2850   55.9660 N.3    78  PHE78      -0.1241
     42  CA         8.3040    5.6950   54.7790 C.3    78  PHE78       0.1605
     43  C          7.2560    6.0270   53.7150 C.2    78  PHE78       0.2264
     44  O          6.0770    5.6830   53.8620 O.2    78  PHE78      -0.2867
     45  CB         9.1780    4.5550   54.2430 C.3    78  PHE78       0.0534
     46  CG        10.4380    4.3110   55.0320 C.ar   78  PHE78      -0.0203
     47  CD1       10.5720    3.1730   55.8130 C.ar   78  PHE78      -0.0042
     48  CD2       11.4960    5.2010   54.9700 C.ar   78  PHE78      -0.0042
     49  CE1       11.7710    2.9270   56.5320 C.ar   78  PHE78      -0.0003
     50  CE2       12.6870    4.9580   55.6830 C.ar   78  PHE78      -0.0003
     51  CZ        12.8160    3.8230   56.4590 C.ar   78  PHE78      -0.0000
     52  N          7.9100    4.4140   47.6630 N.3    82  TRP82      -0.1241
     53  CA         9.0260    3.5010   47.4660 C.3    82  TRP82       0.1605
     54  C          9.1630    2.3810   48.4810 C.2    82  TRP82       0.2264
     55  O         10.2620    1.8880   48.7160 O.2    82  TRP82      -0.2867
     56  CB        10.3720    4.2480   47.3160 C.3    82  TRP82       0.0550
     57  CG        10.6430    5.4460   48.2060 C.ar   82  TRP82       0.0003
     58  CD1       10.4940    6.7640   47.8660 C.ar   82  TRP82       0.0946
     59  CD2       11.2330    5.4380   49.5180 C.ar   82  TRP82       0.0152
     60  NE1       10.9620    7.5740   48.8730 N.ar   82  TRP82      -0.2442
     61  CE2       11.4200    6.7890   49.9000 C.ar   82  TRP82       0.0810
     62  CE3       11.6220    4.4230   50.4050 C.ar   82  TRP82       0.0012
     63  CZ2       11.9820    7.1510   51.1340 C.ar   82  TRP82       0.0191
     64  CZ3       12.1790    4.7810   51.6280 C.ar   82  TRP82       0.0001
     65  CH2       12.3550    6.1370   51.9820 C.ar   82  TRP82       0.0015
     66  N          9.0250   -1.6220   46.7410 N.3    85  LEU85      -0.1245
     67  CA        10.0710   -1.9780   45.8000 C.3    85  LEU85       0.1561
     68  C         10.5040   -3.4350   46.0560 C.2    85  LEU85       0.2260
     69  O         10.9080   -4.1270   45.1310 O.2    85  LEU85      -0.2867
     70  CB        11.2340   -0.9870   45.8940 C.3    85  LEU85       0.0270
     71  CG        10.6990    0.4160   45.5190 C.3    85  LEU85       0.0019
     72  CD1       11.8160    1.4680   45.5510 C.3    85  LEU85       0.0001
     73  CD2       10.0500    0.3430   44.1150 C.3    85  LEU85       0.0001
     74  N         21.0950   -0.9460   58.0500 N.3   136  THR136     -0.1218
     75  CA        20.7960   -0.1500   56.8720 C.3   136  THR136      0.1862
     76  C         19.3650    0.3500   56.8530 C.2   136  THR136      0.2287
     77  O         18.9530    1.0180   55.9090 O.2   136  THR136     -0.2866
     78  CB        21.1140   -0.9140   55.5710 C.3   136  THR136      0.1770
     79  OG1       20.3620   -2.1260   55.5170 O.3   136  THR136     -0.2211
     80  CG2       22.6140   -1.2740   55.5280 C.3   136  THR136      0.0375
     81  N         23.7100    3.1730   58.6210 N.3   163  MET163     -0.1245
     82  CA        23.4130    4.0910   57.5240 C.3   163  MET163      0.1570
     83  C         22.2800    4.9420   58.0920 C.2   163  MET163      0.2261
     84  O         21.1690    4.4440   58.4170 O.2   163  MET163     -0.2867
     85  CB        22.9290    3.3530   56.2870 C.3   163  MET163      0.0387
     86  CG        22.7700    4.2900   55.0780 C.3   163  MET163      0.0595
     87  SD        21.3770    5.4960   55.2270 S.3   163  MET163     -0.1393
     88  CE        22.2410    7.1530   54.9750 C.3   163  MET163      0.0692
     89  N         17.0440   14.4430   53.9520 N.3   172  ASN172     -0.1240
     90  CA        16.2790   14.0990   52.7600 C.3   172  ASN172      0.1653
     91  C         14.8060   13.8880   53.0370 C.2   172  ASN172      0.2266
     92  O         14.0800   13.3830   52.1850 O.2   172  ASN172     -0.2867
     93  CB        16.8990   12.8900   52.0230 C.3   172  ASN172      0.1155
     94  CG        17.0180   11.6500   52.8840 C.2   172  ASN172      0.2627
     95  OD1       16.4370   11.5530   53.9650 O.2   172  ASN172     -0.2716
     96  ND2       17.7740   10.6790   52.3890 N.am  172  ASN172     -0.0877
     97  N         16.9270   12.7660   58.1100 N.3   183  GLU183     -0.1231
     98  CA        17.1700   11.6910   57.1350 C.3   183  GLU183      0.1699
     99  C         16.1590   10.5840   57.4330 C.2   183  GLU183      0.2592
    100  O         15.8080   10.3480   58.5740 O.2   183  GLU183     -0.2718
    101  CB        18.6330   11.2160   57.2570 C.3   183  GLU183      0.0402
    102  CG        18.9890   10.0400   56.3310 C.3   183  GLU183      0.1161
    103  CD        18.5610    8.7000   56.9130 C.2   183  GLU183      0.3649
    104  OE1       18.2400    7.7720   56.1260 O.co2 183  GLU183     -0.2457
    105  OE2       18.5660    8.5660   58.1510 O.co2 183  GLU183     -0.2457
    106  N         15.7010    9.8930   56.3900 N.am  184  TRP184     -0.1962
    107  CA        14.6600    8.8850   56.5260 C.3   184  TRP184      0.1771
    108  C         14.7670    7.7760   57.5430 C.2   184  TRP184      0.2619
    109  O         13.7890    7.4860   58.2350 O.2   184  TRP184     -0.2715
    110  CB        14.3390    8.2940   55.1510 C.3   184  TRP184      0.0590
    111  CG        13.3330    9.1490   54.3890 C.ar  184  TRP184      0.0006
    112  CD1       13.5730    9.9620   53.3170 C.ar  184  TRP184      0.0946
    113  CD2       11.9460    9.3020   54.7150 C.ar  184  TRP184      0.0152
    114  NE1       12.4060   10.6210   52.9630 N.ar  184  TRP184     -0.2442
    115  CE2       11.3990   10.2330   53.8070 C.ar  184  TRP184      0.0810
    116  CE3       11.1170    8.7440   55.6850 C.ar  184  TRP184      0.0012
    117  CZ2       10.0570   10.6180   53.8480 C.ar  184  TRP184      0.0191
    118  CZ3        9.7680    9.1280   55.7270 C.ar  184  TRP184      0.0001
    119  CH2        9.2610   10.0600   54.8070 C.ar  184  TRP184      0.0015
    120  N         15.9130    7.1050   57.6120 N.am  185  ASN185     -0.1972
    121  CA        16.0450    6.0220   58.5890 C.3   185  ASN185      0.1688
    122  C         15.8610    6.4680   60.0390 C.2   185  ASN185      0.2292
    123  O         15.3160    5.7140   60.8660 O.2   185  ASN185     -0.2864
    124  CB        17.4010    5.3250   58.4650 C.3   185  ASN185      0.1181
    125  CG        17.4220    4.3030   57.3460 C.2   185  ASN185      0.2629
    126  OD1       16.3740    3.8180   56.9050 O.2   185  ASN185     -0.2716
    127  ND2       18.6010    3.9520   56.8970 N.am  185  ASN185     -0.0877
    128  N         18.8150    6.5250   44.1940 N.3   244  TYR244     -0.1241
    129  CA        19.7130    7.5480   43.6410 C.3   244  TYR244      0.1605
    130  C         21.1170    7.6390   44.3040 C.2   244  TYR244      0.2264
    131  O         22.0480    8.1980   43.7210 O.2   244  TYR244     -0.2867
    132  CB        19.0270    8.9140   43.6610 C.3   244  TYR244      0.0534
    133  CG        19.8690    9.9560   42.8760 C.ar  244  TYR244     -0.0201
    134  CD1       20.2330    9.7470   41.5400 C.ar  244  TYR244     -0.0009
    135  CD2       20.1910   11.1380   43.4780 C.ar  244  TYR244     -0.0009
    136  CE1       20.8620   10.7470   40.8370 C.ar  244  TYR244      0.0417
    137  CE2       20.8570   12.1290   42.7970 C.ar  244  TYR244      0.0417
    138  CZ        21.1490   11.9640   41.4790 C.ar  244  TYR244      0.1957
    139  OH        21.7670   13.0210   40.8370 O.3   244  TYR244     -0.2866
    140  N         23.5700    4.6090   49.4020 N.3   247  TRP247     -0.1227
    141  CA        23.5930    4.7050   50.8660 C.3   247  TRP247      0.1737
    142  C         24.0180    3.4640   51.6560 C.2   247  TRP247      0.2595
    143  O         25.0420    3.4370   52.3640 O.2   247  TRP247     -0.2718
    144  CB        22.2160    5.0850   51.3900 C.3   247  TRP247      0.0564
    145  CG        21.5230    6.2670   50.7340 C.ar  247  TRP247      0.0003
    146  CD1       21.7170    7.6020   51.0110 C.ar  247  TRP247      0.0946
    147  CD2       20.4130    6.2070   49.8170 C.ar  247  TRP247      0.0152
    148  NE1       20.7900    8.3600   50.3350 N.ar  247  TRP247     -0.2442
    149  CE2       19.9780    7.5410   49.5950 C.ar  247  TRP247      0.0810
    150  CE3       19.7380    5.1580   49.1710 C.ar  247  TRP247      0.0012
    151  CZ2       18.8970    7.8540   48.7520 C.ar  247  TRP247      0.0191
    152  CZ3       18.6660    5.4720   48.3360 C.ar  247  TRP247      0.0001
    153  CH2       18.2570    6.8080   48.1340 C.ar  247  TRP247      0.0015
    154  N         23.1860    2.4410   51.5560 N.am  248  ASP248     -0.1974
    155  CA        23.4080    1.2170   52.3040 C.3   248  ASP248      0.1709
    156  C         24.5780    0.4040   51.8280 C.2   248  ASP248      0.2293
    157  O         25.2370   -0.2870   52.6120 O.2   248  ASP248     -0.2864
    158  CB        22.1450    0.3700   52.2510 C.3   248  ASP248      0.1436
    159  CG        20.9400    1.1080   52.8110 C.2   248  ASP248      0.3671
    160  OD1       21.1400    2.0930   53.5410 O.co2 248  ASP248     -0.2456
    161  OD2       19.8060    0.7020   52.5300 O.co2 248  ASP248     -0.2456
@<TRIPOS>BOND
     1   139   138    1
     2   136   138   ar
     3   136   134   ar
     4   138   137   ar
     5   134   133   ar
     6   137   135   ar
     7   133   135   ar
     8   133   132    1
     9    15    14    1
    10   129   132    1
    11   129   128    1
    12   129   130    1
    13   131   130    2
    14    73    71    1
    15    16    14    1
    16    14    13    1
    17    69    68    2
    18    13    10    1
    19    71    72    1
    20    71    70    1
    21    67    70    1
    22    67    68    1
    23    67    66    1
    24    10    11    1
    25    10     9    1
    26    12    11    2
    27    56    53    1
    28    56    57    1
    29    11    17   am
    30    53    52    1
    31    53    54    1
    32     9     3   am
    33    58    57   ar
    34    58    60   ar
    35    17    18    1
    36   153   152   ar
    37   153   151   ar
    38     7     6    2
    39    57    59   ar
    40   152   150   ar
    41    18    21    1
    42    18    19    1
    43    54    55    2
    44    21    22    1
    45   151   149   ar
    46    60    61   ar
    47     3     4    2
    48     3     2    1
    49   150   147   ar
    50     6     8   am
    51     6     5    1
    52   140   141    1
    53    59    61   ar
    54    59    62   ar
    55   149   147   ar
    56   149   148   ar
    57    19    20    2
    58    19    25   am
    59    22    23   ar
    60    22    24   ar
    61   147   145   ar
    62     2     5    1
    63     2     1    1
    64    61    63   ar
    65   148   146   ar
    66    62    64   ar
    67    25    26    1
    68   145   146   ar
    69   145   144    1
    70   141   144    1
    71   141   142    1
    72    27    28    2
    73    27    26    1
    74    36    35    2
    75    63    65   ar
    76    26    29    1
    77   154   142   am
    78   154   155    1
    79    64    65   ar
    80   142   143    2
    81   156   155    1
    82   156   157    2
    83    93    90    1
    84    93    94    1
    85    92    91    2
    86   158   155    1
    87   158   159    1
    88    29    30    1
    89    32    30   ar
    90    35    34    1
    91    96    94   am
    92    40    38   ar
    93   161   159   ar
    94    90    91    1
    95    90    89    1
    96    37    34    1
    97    37    38    1
    98   159   160   ar
    99    94    95    2
   100   114   112   ar
   101   114   115   ar
   102    30    31   ar
   103    34    33    1
   104    38    39   ar
   105   112   111   ar
   106    43    44    2
   107    43    42    1
   108   115   117   ar
   109   115   113   ar
   110   117   119   ar
   111    45    42    1
   112    45    46    1
   113   111   113   ar
   114   111   110    1
   115   113   116   ar
   116    42    41    1
   117   119   118   ar
   118    48    46   ar
   119    48    50   ar
   120    88    87    1
   121    46    47   ar
   122    86    87    1
   123    86    85    1
   124   110   107    1
   125    79    78    1
   126    80    78    1
   127    78    75    1
   128    50    51   ar
   129   116   118   ar
   130    47    49   ar
   131    77    76    2
   132   104   103   ar
   133    85    82    1
   134   102   103    1
   135   102   101    1
   136   106   107    1
   137   106    99   am
   138    51    49   ar
   139   107   108    1
   140    76    75    1
   141    75    74    1
   142   127   125   am
   143   126   125    2
   144   103   105   ar
   145    98   101    1
   146    98    99    1
   147    98    97    1
   148   125   124    1
   149    99   100    2
   150    82    83    1
   151    82    81    1
   152   108   120   am
   153   108   109    2
   154   120   121    1
   155    83    84    2
   156   124   121    1
   157   121   122    1
   158   122   123    2
