@<TRIPOS>MOLECULE
tmp/1kieB00.pdb
 147 142 0 0 0
SMALL
GASTEIGER

@<TRIPOS>ATOM
      1  N         14.6340   -2.2170   50.0450 N.3    11  ASN11      -0.1240
      2  CA        14.5310   -1.4120   48.8530 C.3    11  ASN11       0.1653
      3  C         15.6660   -1.8700   47.9530 C.2    11  ASN11       0.2266
      4  O         16.4900   -2.6880   48.3510 O.2    11  ASN11      -0.2867
      5  CB        14.6680    0.0720   49.1290 C.3    11  ASN11       0.1155
      6  CG        13.8750    0.9010   48.1370 C.2    11  ASN11       0.2627
      7  OD1       14.0280    0.7600   46.9190 O.2    11  ASN11      -0.2716
      8  ND2       13.0030    1.7570   48.6530 N.am   11  ASN11      -0.0877
      9  N         18.5130   -0.5960   46.9660 N.3    13  ASP13      -0.1225
     10  CA        19.8970   -0.5340   47.4130 C.3    13  ASP13       0.1805
     11  C         20.1750   -1.4430   48.6060 C.2    13  ASP13       0.2597
     12  O         21.3160   -1.8350   48.8440 O.2    13  ASP13      -0.2718
     13  CB        20.2910    0.9100   47.7100 C.3    13  ASP13       0.1424
     14  CG        19.2750    1.6310   48.5500 C.2    13  ASP13       0.3668
     15  OD1       18.0820    1.6880   48.1610 O.co2  13  ASP13      -0.2456
     16  OD2       19.6870    2.1540   49.5990 O.co2  13  ASP13      -0.2456
     17  N         19.1240   -1.7910   49.3410 N.am   14  ASP14      -0.1974
     18  CA        19.2610   -2.7180   50.4560 C.3    14  ASP14       0.1709
     19  C         19.7110   -4.0520   49.8660 C.2    14  ASP14       0.2293
     20  O         20.5210   -4.7580   50.4350 O.2    14  ASP14      -0.2864
     21  CB        17.9170   -2.9420   51.1060 C.3    14  ASP14       0.1436
     22  CG        17.4410   -1.7280   51.8620 C.2    14  ASP14       0.3671
     23  OD1       17.7530   -1.6250   53.0740 O.co2  14  ASP14      -0.2456
     24  OD2       16.7770   -0.8710   51.2410 O.co2  14  ASP14      -0.2456
     25  N         10.8530    0.2240   53.5260 N.3    39  ASP39      -0.1239
     26  CA        10.8850    0.5540   52.0900 C.3    39  ASP39       0.1674
     27  C         10.0920   -0.4690   51.2930 C.2    39  ASP39       0.2266
     28  O         10.1940   -0.5250   50.0690 O.2    39  ASP39      -0.2867
     29  CB        12.3210    0.5170   51.5580 C.3    39  ASP39       0.1410
     30  CG        13.1070    1.7710   51.8710 C.2    39  ASP39       0.3668
     31  OD1       13.0780    2.2340   53.0260 O.co2  39  ASP39      -0.2456
     32  OD2       13.7760    2.2890   50.9500 O.co2  39  ASP39      -0.2456
     33  N          7.5370    5.0720   54.8180 N.3    78  PHE78      -0.1241
     34  CA         8.3010    5.4850   53.6630 C.3    78  PHE78       0.1605
     35  C          7.2600    5.8460   52.6080 C.2    78  PHE78       0.2264
     36  O          6.1120    5.3970   52.6770 O.2    78  PHE78      -0.2867
     37  CB         9.1710    4.3350   53.1600 C.3    78  PHE78       0.0534
     38  CG        10.4200    4.1370   53.9570 C.ar   78  PHE78      -0.0203
     39  CD1       10.6380    2.9700   54.6570 C.ar   78  PHE78      -0.0042
     40  CD2       11.3800    5.1390   54.0200 C.ar   78  PHE78      -0.0042
     41  CE1       11.8040    2.8020   55.4160 C.ar   78  PHE78      -0.0003
     42  CE2       12.5340    4.9730   54.7700 C.ar   78  PHE78      -0.0003
     43  CZ        12.7430    3.7990   55.4680 C.ar   78  PHE78      -0.0000
     44  N          7.9390    5.0860   46.0500 N.3    82  TRP82      -0.1241
     45  CA         8.8900    4.0230   45.8040 C.3    82  TRP82       0.1605
     46  C          8.5100    2.9020   46.7400 C.2    82  TRP82       0.2264
     47  O          7.6470    2.0750   46.4230 O.2    82  TRP82      -0.2867
     48  CB        10.3430    4.4300   46.0760 C.3    82  TRP82       0.0550
     49  CG        10.5890    5.5250   47.0690 C.ar   82  TRP82       0.0003
     50  CD1       10.5870    6.8670   46.8130 C.ar   82  TRP82       0.0946
     51  CD2       11.0460    5.3790   48.4230 C.ar   82  TRP82       0.0152
     52  NE1       11.0330    7.5620   47.9090 N.ar   82  TRP82      -0.2442
     53  CE2       11.3220    6.6760   48.9120 C.ar   82  TRP82       0.0810
     54  CE3       11.2550    4.2790   49.2680 C.ar   82  TRP82       0.0012
     55  CZ2       11.7990    6.9060   50.2110 C.ar   82  TRP82       0.0191
     56  CZ3       11.7290    4.5070   50.5630 C.ar   82  TRP82       0.0001
     57  CH2       11.9970    5.8130   51.0180 C.ar   82  TRP82       0.0015
     58  N          9.2950   -1.8390   46.2010 N.3    85  LEU85      -0.1245
     59  CA         9.9130   -2.0850   44.9060 C.3    85  LEU85       0.1561
     60  C         10.4320   -3.5170   45.0340 C.2    85  LEU85       0.2260
     61  O         10.8320   -4.1510   44.0610 O.2    85  LEU85      -0.2867
     62  CB        11.0670   -1.1030   44.6680 C.3    85  LEU85       0.0270
     63  CG        10.6050    0.3420   44.4040 C.3    85  LEU85       0.0019
     64  CD1       11.7600    1.3350   44.5070 C.3    85  LEU85       0.0001
     65  CD2        9.9640    0.3950   43.0130 C.3    85  LEU85       0.0001
     66  N         20.8090   -0.9650   56.8400 N.3   136  THR136     -0.1218
     67  CA        20.5390   -0.1510   55.6560 C.3   136  THR136      0.1862
     68  C         19.0990    0.3540   55.6630 C.2   136  THR136      0.2287
     69  O         18.6540    1.0280   54.7250 O.2   136  THR136     -0.2866
     70  CB        20.7740   -0.9420   54.3830 C.3   136  THR136      0.1770
     71  OG1       19.8900   -2.0570   54.3610 O.3   136  THR136     -0.2211
     72  CG2       22.2150   -1.4510   54.3280 C.3   136  THR136      0.0375
     73  N         23.2290    3.1680   57.4790 N.3   163  MET163     -0.1245
     74  CA        22.9990    4.0590   56.3570 C.3   163  MET163      0.1570
     75  C         21.8540    4.8950   56.9040 C.2   163  MET163      0.2261
     76  O         20.7520    4.3820   57.1830 O.2   163  MET163     -0.2867
     77  CB        22.5450    3.3200   55.1050 C.3   163  MET163      0.0387
     78  CG        22.2990    4.2570   53.9150 C.3   163  MET163      0.0595
     79  SD        20.9520    5.4550   54.2150 S.3   163  MET163     -0.1393
     80  CE        21.8640    7.0790   54.0690 C.3   163  MET163      0.0692
     81  N         16.5980   14.1000   52.9840 N.3   172  ASN172     -0.1240
     82  CA        15.9020   13.7840   51.7560 C.3   172  ASN172      0.1653
     83  C         14.4470   13.5320   52.0070 C.2   172  ASN172      0.2266
     84  O         13.7440   13.0060   51.1490 O.2   172  ASN172     -0.2867
     85  CB        16.5500   12.6020   51.0240 C.3   172  ASN172      0.1155
     86  CG        16.6660   11.3590   51.8700 C.2   172  ASN172      0.2627
     87  OD1       16.1790   11.2920   52.9940 O.2   172  ASN172     -0.2716
     88  ND2       17.3170   10.3460   51.3140 N.am  172  ASN172     -0.0877
     89  N         16.6750   12.4830   57.0390 N.3   183  GLU183     -0.1231
     90  CA        16.9350   11.4340   56.0730 C.3   183  GLU183      0.1699
     91  C         15.8740   10.3580   56.3310 C.2   183  GLU183      0.2592
     92  O         15.4250   10.1640   57.4580 O.2   183  GLU183     -0.2718
     93  CB        18.3630   10.9070   56.2350 C.3   183  GLU183      0.0402
     94  CG        18.6840    9.7610   55.3180 C.3   183  GLU183      0.1161
     95  CD        18.1430    8.4580   55.8370 C.2   183  GLU183      0.3649
     96  OE1       17.7110    7.6280   55.0140 O.co2 183  GLU183     -0.2457
     97  OE2       18.1490    8.2570   57.0680 O.co2 183  GLU183     -0.2457
     98  N         15.4620    9.6680   55.2770 N.am  184  TRP184     -0.1962
     99  CA        14.4060    8.6810   55.3880 C.3   184  TRP184      0.1771
    100  C         14.4960    7.5760   56.4150 C.2   184  TRP184      0.2619
    101  O         13.5220    7.3360   57.1400 O.2   184  TRP184     -0.2715
    102  CB        14.1260    8.0900   54.0140 C.3   184  TRP184      0.0590
    103  CG        13.1630    8.9360   53.2540 C.ar  184  TRP184      0.0006
    104  CD1       13.4270    9.7130   52.1700 C.ar  184  TRP184      0.0946
    105  CD2       11.7830    9.1320   53.5680 C.ar  184  TRP184      0.0152
    106  NE1       12.2880   10.3900   51.7890 N.ar  184  TRP184     -0.2442
    107  CE2       11.2660   10.0460   52.6320 C.ar  184  TRP184      0.0810
    108  CE3       10.9320    8.6180   54.5540 C.ar  184  TRP184      0.0012
    109  CZ2        9.9320   10.4610   52.6480 C.ar  184  TRP184      0.0191
    110  CZ3        9.6120    9.0310   54.5710 C.ar  184  TRP184      0.0001
    111  CH2        9.1260    9.9440   53.6220 C.ar  184  TRP184      0.0015
    112  N         15.6260    6.8810   56.4870 N.am  185  ASN185     -0.1972
    113  CA        15.7410    5.8000   57.4650 C.3   185  ASN185      0.1688
    114  C         15.5540    6.2650   58.8980 C.2   185  ASN185      0.2292
    115  O         14.9310    5.5690   59.6990 O.2   185  ASN185     -0.2864
    116  CB        17.0800    5.0980   57.3550 C.3   185  ASN185      0.1181
    117  CG        17.1300    4.1760   56.1850 C.2   185  ASN185      0.2629
    118  OD1       16.0970    3.6620   55.7590 O.2   185  ASN185     -0.2716
    119  ND2       18.3190    3.9530   55.6500 N.am  185  ASN185     -0.0877
    120  N         13.7620    3.0350   39.3140 N.3   244  CYS244     -0.1235
    121  CA        13.4200    4.2380   40.0580 C.3   244  CYS244      0.1677
    122  C         13.4990    4.0370   41.5730 C.2   244  CYS244      0.2270
    123  O         13.9550    2.9970   42.0590 O.2   244  CYS244     -0.2867
    124  CB        12.0130    4.6790   39.6710 C.3   244  CYS244      0.0956
    125  SG        10.7990    3.3420   39.8150 S.3   244  CYS244     -0.0801
    126  N         23.1830    4.6160   48.4060 N.3   247  TRP247     -0.1227
    127  CA        23.1450    4.7400   49.8610 C.3   247  TRP247      0.1737
    128  C         23.5720    3.4810   50.5800 C.2   247  TRP247      0.2595
    129  O         24.6510    3.4210   51.1650 O.2   247  TRP247     -0.2718
    130  CB        21.7500    5.0760   50.3640 C.3   247  TRP247      0.0564
    131  CG        21.1090    6.2330   49.7290 C.ar  247  TRP247      0.0003
    132  CD1       21.3070    7.5410   50.0310 C.ar  247  TRP247      0.0946
    133  CD2       20.0590    6.1940   48.7490 C.ar  247  TRP247      0.0152
    134  NE1       20.4340    8.3240   49.3160 N.ar  247  TRP247     -0.2442
    135  CE2       19.6560    7.5240   48.5200 C.ar  247  TRP247      0.0810
    136  CE3       19.4150    5.1610   48.0520 C.ar  247  TRP247      0.0012
    137  CZ2       18.6340    7.8570   47.6220 C.ar  247  TRP247      0.0191
    138  CZ3       18.4000    5.4870   47.1610 C.ar  247  TRP247      0.0001
    139  CH2       18.0180    6.8310   46.9540 C.ar  247  TRP247      0.0015
    140  N         22.7010    2.4760   50.5250 N.am  248  ASP248     -0.1974
    141  CA        22.9220    1.2140   51.2070 C.3   248  ASP248      0.1709
    142  C         24.1120    0.4400   50.7000 C.2   248  ASP248      0.2293
    143  O         24.8430   -0.1510   51.4900 O.2   248  ASP248     -0.2864
    144  CB        21.6670    0.3550   51.1300 C.3   248  ASP248      0.1436
    145  CG        20.4610    1.0630   51.6940 C.2   248  ASP248      0.3671
    146  OD1       20.6610    2.0140   52.4730 O.co2 248  ASP248     -0.2456
    147  OD2       19.3270    0.6750   51.3680 O.co2 248  ASP248     -0.2456
@<TRIPOS>BOND
     1   120   121    1
     2   124   125    1
     3   124   121    1
     4   121   122    1
     5   122   123    2
     6    65    63    1
     7    61    60    2
     8    63    64    1
     9    63    62    1
    10    62    59    1
    11    59    60    1
    12    59    58    1
    13    45    44    1
    14    45    48    1
    15    45    46    1
    16    48    49    1
    17    47    46    2
    18    50    49   ar
    19    50    52   ar
    20     7     6    2
    21   139   138   ar
    22   139   137   ar
    23     9    10    1
    24    49    51   ar
    25   138   136   ar
    26    10    13    1
    27    10    11    1
    28   137   135   ar
    29    13    14    1
    30    52    53   ar
    31     3     4    2
    32     3     2    1
    33   136   133   ar
    34     6     8   am
    35     6     5    1
    36    15    14   ar
    37   126   127    1
    38    51    53   ar
    39    51    54   ar
    40   135   133   ar
    41   135   134   ar
    42    14    16   ar
    43    11    12    2
    44    11    17   am
    45   133   131   ar
    46     2     5    1
    47     2     1    1
    48    53    55   ar
    49    54    56   ar
    50   134   132   ar
    51    17    18    1
    52   131   132   ar
    53   131   130    1
    54   127   130    1
    55   127   128    1
    56    19    20    2
    57    19    18    1
    58    28    27    2
    59    55    57   ar
    60    18    21    1
    61   140   128   am
    62   140   141    1
    63    56    57   ar
    64   128   129    2
    65   142   141    1
    66   142   143    2
    67    32    30   ar
    68    85    82    1
    69    85    86    1
    70    21    22    1
    71   144   141    1
    72   144   145    1
    73    84    83    2
    74    24    22   ar
    75    27    26    1
    76    88    86   am
    77   147   145   ar
    78    29    30    1
    79    29    26    1
    80   145   146   ar
    81    82    83    1
    82    82    81    1
    83   106   104   ar
    84   106   107   ar
    85    22    23   ar
    86    86    87    2
    87    30    31   ar
    88    26    25    1
    89   104   103   ar
    90    35    36    2
    91    35    34    1
    92   107   109   ar
    93   107   105   ar
    94   109   111   ar
    95    37    34    1
    96    37    38    1
    97   103   105   ar
    98   103   102    1
    99   105   108   ar
   100   111   110   ar
   101    34    33    1
   102    78    79    1
   103    78    77    1
   104    38    40   ar
   105    38    39   ar
   106   102    99    1
   107    40    42   ar
   108    80    79    1
   109    72    70    1
   110    71    70    1
   111    70    67    1
   112   108   110   ar
   113    39    41   ar
   114    69    68    2
   115    42    43   ar
   116    96    95   ar
   117    77    74    1
   118    98    99    1
   119    98    91   am
   120    94    95    1
   121    94    93    1
   122    99   100    1
   123    41    43   ar
   124   119   117   am
   125    67    68    1
   126    67    66    1
   127   118   117    2
   128    95    97   ar
   129    90    93    1
   130    90    91    1
   131    90    89    1
   132   117   116    1
   133    91    92    2
   134    74    75    1
   135    74    73    1
   136   100   112   am
   137   100   101    2
   138   112   113    1
   139    75    76    2
   140   116   113    1
   141   113   114    1
   142   114   115    2
