@<TRIPOS>MOLECULE
tmp/1kifB01.pdb
 84 76 0 0 0
SMALL
GASTEIGER

@<TRIPOS>ATOM
      1  N         87.1550   45.2370   61.9130 N.3    49  ALA49      -0.1245
      2  CA        87.9010   44.1190   61.3420 C.3    49  ALA49       0.1562
      3  C         87.9200   42.9600   62.3520 C.2    49  ALA49       0.2260
      4  O         88.1320   41.8100   61.9830 O.2    49  ALA49      -0.2867
      5  CB        89.3110   44.5710   61.0130 C.3    49  ALA49       0.0290
      6  N         90.0630   42.5160   65.0180 N.3    51  LEU51      -0.1245
      7  CA        91.3330   42.2210   65.6770 C.3    51  LEU51       0.1561
      8  C         91.7680   42.9930   66.9100 C.2    51  LEU51       0.2260
      9  O         91.4780   44.1740   67.0370 O.2    51  LEU51      -0.2867
     10  CB        92.4550   42.3060   64.6430 C.3    51  LEU51       0.0270
     11  CG        93.8670   41.8760   65.0280 C.3    51  LEU51       0.0019
     12  CD1       93.8810   40.4120   65.3760 C.3    51  LEU51       0.0001
     13  CD2       94.8400   42.1640   63.8960 C.3    51  LEU51       0.0001
     14  N         94.5510   44.8040   68.4280 N.3    53  GLN53      -0.1245
     15  CA        95.8700   45.3180   68.0920 C.3    53  GLN53       0.1566
     16  C         95.7880   46.8140   68.1850 C.2    53  GLN53       0.2260
     17  O         94.9990   47.4480   67.5010 O.2    53  GLN53      -0.2867
     18  CB        96.3430   44.8930   66.7160 C.3    53  GLN53       0.0367
     19  CG        97.6890   45.4900   66.4320 C.3    53  GLN53       0.0905
     20  CD        98.4120   44.7940   65.2940 C.2    53  GLN53       0.2608
     21  OE1       98.5120   43.5770   65.2690 O.2    53  GLN53      -0.2717
     22  NE2       98.9050   45.5580   64.3390 N.am   53  GLN53      -0.0878
     23  N         98.9030   42.2100   58.1670 N.3   215  ILE215     -0.1245
     24  CA        98.6700   43.6290   58.1530 C.3   215  ILE215      0.1561
     25  C         99.9230   44.3170   57.7080 C.2   215  ILE215      0.2260
     26  O        101.0160   44.1740   58.2380 O.2   215  ILE215     -0.2867
     27  CB        98.3560   44.1030   59.5710 C.3   215  ILE215      0.0252
     28  CG1       97.0560   43.4880   60.0460 C.3   215  ILE215      0.0019
     29  CG2       98.2330   45.5880   59.6800 C.3   215  ILE215      0.0019
     30  CD1       96.8130   43.8390   61.4760 C.3   215  ILE215      0.0001
     31  N         96.5180   52.1590   58.6920 N.3   224  TYR224     -0.1241
     32  CA        95.3570   51.5650   58.0600 C.3   224  TYR224      0.1605
     33  C         95.0630   51.9700   56.6420 C.2   224  TYR224      0.2264
     34  O         94.0050   51.6770   56.1020 O.2   224  TYR224     -0.2867
     35  CB        94.1510   51.3730   58.9590 C.3   224  TYR224      0.0534
     36  CG        94.5560   50.7290   60.2660 C.ar  224  TYR224     -0.0201
     37  CD1       95.4190   49.6390   60.2930 C.ar  224  TYR224     -0.0009
     38  CD2       94.1540   51.2580   61.4790 C.ar  224  TYR224     -0.0009
     39  CE1       95.8140   49.0560   61.4890 C.ar  224  TYR224      0.0417
     40  CE2       94.5340   50.6780   62.6810 C.ar  224  TYR224      0.0417
     41  CZ        95.3690   49.5860   62.6790 C.ar  224  TYR224      0.1957
     42  OH        95.7590   49.0320   63.8740 O.3   224  TYR224     -0.2866
     43  N         95.2900   45.0090   54.3730 N.3   228  TYR228     -0.1241
     44  CA        95.3330   44.1510   55.5180 C.3   228  TYR228      0.1605
     45  C         94.2590   43.1180   55.2650 C.2   228  TYR228      0.2264
     46  O         93.2650   43.3910   54.5950 O.2   228  TYR228     -0.2867
     47  CB        95.1790   44.8700   56.8360 C.3   228  TYR228      0.0534
     48  CG        93.8950   45.5770   57.1630 C.ar  228  TYR228     -0.0201
     49  CD1       92.6860   44.9080   57.2250 C.ar  228  TYR228     -0.0009
     50  CD2       93.9200   46.9060   57.5520 C.ar  228  TYR228     -0.0009
     51  CE1       91.5240   45.5810   57.5870 C.ar  228  TYR228      0.0417
     52  CE2       92.7780   47.5720   57.9120 C.ar  228  TYR228      0.0417
     53  CZ        91.5880   46.9100   57.9370 C.ar  228  TYR228      0.1957
     54  OH        90.5020   47.6460   58.3300 O.3   228  TYR228     -0.2866
     55  N         92.2280   40.0100   57.4260 N.3   230  ILE230     -0.1245
     56  CA        92.0160   39.4620   58.7440 C.3   230  ILE230      0.1561
     57  C         90.8320   38.5360   58.7730 C.2   230  ILE230      0.2260
     58  O         89.6820   38.9300   58.5960 O.2   230  ILE230     -0.2867
     59  CB        91.6580   40.6420   59.6450 C.3   230  ILE230      0.0252
     60  CG1       92.8270   41.6110   59.6860 C.3   230  ILE230      0.0019
     61  CG2       91.2400   40.1900   61.0180 C.3   230  ILE230      0.0019
     62  CD1       92.5150   42.7850   60.5290 C.3   230  ILE230      0.0001
     63  N         85.8510   55.5850   62.3100 N.3   283  ARG283     -0.1245
     64  CA        86.5500   55.3860   63.5740 C.3   283  ARG283      0.1563
     65  C         86.3350   56.7090   64.3160 C.2   283  ARG283      0.2260
     66  O         86.4330   57.7640   63.6920 O.2   283  ARG283     -0.2867
     67  CB        88.0330   55.2050   63.2480 C.3   283  ARG283      0.0307
     68  CG        88.4020   53.8140   62.7650 C.3   283  ARG283      0.0489
     69  CD        89.3680   53.9660   61.6300 C.3   283  ARG283      0.2205
     70  NE        89.8600   52.7220   61.0750 N.pl3 283  ARG283     -0.0865
     71  CZ        89.9630   52.5380   59.7650 C.cat 283  ARG283      0.5346
     72  NH1       89.5550   53.4940   58.9450 N.pl3 283  ARG283      0.1354
     73  NH2       90.4190   51.3990   59.2660 N.pl3 283  ARG283      0.1354
     74  N         90.6880   53.5660   65.8890 N.3   313  GLY313     -0.1225
     75  CA        90.8920   52.2320   65.3290 C.3   313  GLY313      0.1811
     76  C         91.2320   51.2450   66.4390 C.2   313  GLY313      0.2280
     77  O         91.9000   50.2450   66.2010 O.2   313  GLY313     -0.2866
     78  N         89.9680   46.7510   70.8860 N.3   317  THR317     -0.1218
     79  CA        91.1980   46.4790   71.5860 C.3   317  THR317      0.1862
     80  C         91.3160   46.9870   73.0100 C.2   317  THR317      0.2287
     81  O         92.0550   46.4230   73.8020 O.2   317  THR317     -0.2866
     82  CB        92.3310   47.0920   70.7700 C.3   317  THR317      0.1770
     83  OG1       92.3960   46.4540   69.4890 O.3   317  THR317     -0.2211
     84  CG2       93.6360   46.9340   71.4560 C.3   317  THR317      0.0375
@<TRIPOS>BOND
     1    43    44    1
     2    46    45    2
     3    45    44    1
     4    44    47    1
     5    34    33    2
     6    33    32    1
     7    47    48    1
     8    48    49   ar
     9    48    50   ar
    10    49    51   ar
    11    55    56    1
    12    50    52   ar
    13    51    53   ar
    14    25    24    1
    15    25    26    2
    16    52    53   ar
    17    53    54    1
    18    32    31    1
    19    32    35    1
    20    24    23    1
    21    24    27    1
    22    58    57    2
    23    56    57    1
    24    56    59    1
    25    72    71    1
    26    35    36    1
    27    73    71    1
    28    27    29    1
    29    27    28    1
    30    59    60    1
    31    59    61    1
    32    60    62    1
    33    71    70    2
    34    28    30    1
    35    36    37   ar
    36    36    38   ar
    37    37    39   ar
    38     5     2    1
    39    70    69    1
    40     2     1    1
    41     2     3    1
    42    38    40   ar
    43    39    41   ar
    44    69    68    1
    45     4     3    2
    46    63    64    1
    47    41    40   ar
    48    41    42    1
    49    68    67    1
    50    67    64    1
    51    64    65    1
    52    66    65    2
    53    13    11    1
    54    22    20   am
    55    10    11    1
    56    10     7    1
    57     6     7    1
    58    11    12    1
    59    21    20    2
    60    20    19    1
    61    75    74    1
    62    75    76    1
    63     7     8    1
    64    77    76    2
    65    19    18    1
    66    18    15    1
    67     8     9    2
    68    17    16    2
    69    15    16    1
    70    15    14    1
    71    83    82    1
    72    82    84    1
    73    82    79    1
    74    78    79    1
    75    79    80    1
    76    80    81    2
