@<TRIPOS>MOLECULE
tmp/1kijB00.pdb
 174 162 0 0 0
SMALL
GASTEIGER

@<TRIPOS>ATOM
      1  N         11.0480   32.2250   25.6670 N.3    34  ILE34      -0.1245
      2  CA        10.7740   33.6100   26.0210 C.3    34  ILE34       0.1561
      3  C          9.9490   34.2780   24.9080 C.2    34  ILE34       0.2260
      4  O          9.0300   35.0470   25.1860 O.2    34  ILE34      -0.2867
      5  CB        12.0890   34.3880   26.2950 C.3    34  ILE34       0.0252
      6  CG1       12.8300   33.7540   27.4770 C.3    34  ILE34       0.0019
      7  CG2       11.7860   35.8330   26.6430 C.3    34  ILE34       0.0019
      8  CD1       12.0320   33.7390   28.7910 C.3    34  ILE34       0.0001
      9  N          6.3800   33.3040   25.1470 N.3    37  ASN37      -0.1225
     10  CA         5.6910   33.9780   26.2510 C.3    37  ASN37       0.1785
     11  C          5.1480   35.2890   25.6710 C.2    37  ASN37       0.2597
     12  O          4.0490   35.6960   25.9730 O.2    37  ASN37      -0.2718
     13  CB         6.6600   34.3090   27.3930 C.3    37  ASN37       0.1169
     14  CG         7.0570   33.0880   28.2180 C.2    37  ASN37       0.2627
     15  OD1        7.9900   33.1530   29.0090 O.2    37  ASN37      -0.2716
     16  ND2        6.3400   31.9780   28.0440 N.am   37  ASN37      -0.0877
     17  N          5.9430   35.9360   24.8250 N.am   38  ALA38      -0.1979
     18  CA         5.5360   37.1880   24.2040 C.3    38  ALA38       0.1597
     19  C          4.3990   36.9250   23.2090 C.2    38  ALA38       0.2287
     20  O          3.3800   37.6040   23.2260 O.2    38  ALA38      -0.2864
     21  CB         6.7270   37.8270   23.5000 C.3    38  ALA38       0.0319
     22  N          2.2620   34.6860   23.2530 N.3    40  ASP40      -0.1225
     23  CA         1.0160   34.3830   23.9570 C.3    40  ASP40       0.1805
     24  C          0.2130   35.6580   24.2530 C.2    40  ASP40       0.2597
     25  O         -1.0140   35.6170   24.2990 O.2    40  ASP40      -0.2718
     26  CB         1.2810   33.5970   25.2550 C.3    40  ASP40       0.1424
     27  CG         1.5020   32.1060   25.0010 C.2    40  ASP40       0.3668
     28  OD1        1.3930   31.6770   23.8310 O.co2  40  ASP40      -0.2456
     29  OD2        1.7780   31.3520   25.9580 O.co2  40  ASP40      -0.2456
     30  N          0.8980   36.7830   24.4530 N.am   41  GLU41      -0.1979
     31  CA         0.2020   38.0430   24.6900 C.3    41  GLU41       0.1602
     32  C         -0.4970   38.4650   23.4090 C.2    41  GLU41       0.2287
     33  O         -1.5660   39.0650   23.4540 O.2    41  GLU41      -0.2864
     34  CB         1.1610   39.1520   25.1300 C.3    41  GLU41       0.0415
     35  CG         1.4050   39.1890   26.6180 C.3    41  GLU41       0.1163
     36  CD         0.1160   39.3410   27.4180 C.2    41  GLU41       0.3649
     37  OE1       -0.3990   40.4810   27.5410 O.co2  41  GLU41      -0.2457
     38  OE2       -0.3790   38.3060   27.9130 O.co2  41  GLU41      -0.2457
     39  N          7.7240   42.9650   24.2460 N.3    64  ASP64      -0.1239
     40  CA         6.3900   42.8750   23.6730 C.3    64  ASP64       0.1674
     41  C          5.5020   44.0780   23.9970 C.2    64  ASP64       0.2266
     42  O          5.7330   44.8140   24.9490 O.2    64  ASP64      -0.2867
     43  CB         5.6950   41.5930   24.1450 C.3    64  ASP64       0.1410
     44  CG         5.4050   41.6010   25.6380 C.2    64  ASP64       0.3668
     45  OD1        4.5300   42.3710   26.0870 O.co2  64  ASP64      -0.2456
     46  OD2        6.0600   40.8390   26.3690 O.co2  64  ASP64      -0.2456
     47  N          0.4310   43.5030   28.0440 N.3    67  ARG67      -0.1231
     48  CA        -0.1080   44.0760   29.2740 C.3    67  ARG67       0.1694
     49  C          0.9720   44.3070   30.3220 C.2    67  ARG67       0.2593
     50  O          0.7930   45.0960   31.2430 O.2    67  ARG67      -0.2718
     51  CB        -1.1560   43.1340   29.8720 C.3    67  ARG67       0.0321
     52  CG        -2.4430   43.0030   29.0730 C.3    67  ARG67       0.0489
     53  CD        -3.2990   41.8450   29.5900 C.3    67  ARG67       0.2205
     54  NE        -2.7970   40.5320   29.1710 N.pl3  67  ARG67      -0.0865
     55  CZ        -3.4430   39.3800   29.3590 C.cat  67  ARG67       0.5346
     56  NH1       -4.6260   39.3630   29.9670 N.pl3  67  ARG67       0.1354
     57  NH2       -2.9190   38.2370   28.9240 N.pl3  67  ARG67       0.1354
     58  N          2.0890   43.6020   30.1790 N.am   68  GLY68      -0.1942
     59  CA         3.1640   43.7180   31.1430 C.3    68  GLY68       0.2014
     60  C          2.8590   42.7390   32.2640 C.2    68  GLY68       0.2639
     61  O          1.7790   42.7630   32.8200 O.2    68  GLY68      -0.2714
     62  N          3.8080   41.8670   32.5830 N.am   69  ILE69      -0.1963
     63  CA         3.5940   40.8840   33.6310 C.3    69  ILE69       0.1712
     64  C          3.2420   41.5790   34.9570 C.2    69  ILE69       0.2458
     65  O          3.9310   42.5060   35.3900 O.2    69  ILE69      -0.2730
     66  CB         4.8510   40.0000   33.8300 C.3    69  ILE69       0.0289
     67  CG1        5.2980   39.4090   32.4850 C.3    69  ILE69       0.0022
     68  CG2        4.5340   38.8670   34.8170 C.3    69  ILE69       0.0023
     69  CD1        6.5470   38.5960   32.5670 C.3    69  ILE69       0.0001
     70  N          2.1550   41.1390   35.6100 N.am   70  PRO70      -0.2727
     71  CA         1.7160   41.7200   36.8840 C.3    70  PRO70       0.1402
     72  C          2.8210   41.7700   37.9350 C.2    70  PRO70       0.2269
     73  O          3.5900   40.8210   38.0930 O.2    70  PRO70      -0.2865
     74  CB         0.5630   40.8110   37.2870 C.3    70  PRO70       0.0296
     75  CG        -0.0500   40.4710   35.9560 C.3    70  PRO70       0.0237
     76  CD         1.1780   40.1470   35.1250 C.3    70  PRO70       0.0939
     77  N          2.0510   42.9540   41.2630 N.3    72  ASP72      -0.1239
     78  CA         1.4360   43.0170   42.5830 C.3    72  ASP72       0.1674
     79  C          1.7430   41.7460   43.3650 C.2    72  ASP72       0.2266
     80  O          1.9260   40.6750   42.7930 O.2    72  ASP72      -0.2867
     81  CB        -0.0810   43.2200   42.4820 C.3    72  ASP72       0.1410
     82  CG        -0.7800   42.1080   41.7250 C.2    72  ASP72       0.3668
     83  OD1       -1.9820   41.8870   41.9810 O.co2  72  ASP72      -0.2456
     84  OD2       -0.1440   41.4620   40.8660 O.co2  72  ASP72      -0.2456
     85  N          1.6680   38.4100   45.6870 N.3    74  MET74      -0.1245
     86  CA         0.8800   37.1860   45.7750 C.3    74  MET74       0.1570
     87  C          0.9410   36.8340   47.2540 C.2    74  MET74       0.2261
     88  O          1.9790   36.4380   47.7480 O.2    74  MET74      -0.2867
     89  CB         1.5150   36.0600   44.9510 C.3    74  MET74       0.0387
     90  CG         1.0220   35.9660   43.5100 C.3    74  MET74       0.0595
     91  SD         1.8640   34.6660   42.5470 S.3    74  MET74      -0.1393
     92  CE         1.3520   33.1750   43.4470 C.3    74  MET74       0.0692
     93  N          4.1080   38.9300   41.6560 N.3    81  ALA81      -0.1245
     94  CA         3.7410   37.8860   40.7090 C.3    81  ALA81       0.1562
     95  C          4.8720   37.6090   39.7150 C.2    81  ALA81       0.2260
     96  O          5.1900   36.4550   39.4390 O.2    81  ALA81      -0.2867
     97  CB         2.4690   38.2860   39.9610 C.3    81  ALA81       0.0290
     98  N          6.6000   34.0120   38.9320 N.3    85  ILE85      -0.1231
     99  CA         6.6360   33.4820   37.5710 C.3    85  ILE85       0.1692
    100  C          8.0270   32.9990   37.1420 C.2    85  ILE85       0.2592
    101  O          8.1570   31.9050   36.5980 O.2    85  ILE85      -0.2718
    102  CB         6.1290   34.5390   36.5450 C.3    85  ILE85       0.0266
    103  CG1        4.6110   34.7040   36.6700 C.3    85  ILE85       0.0019
    104  CG2        6.5000   34.1190   35.1190 C.3    85  ILE85       0.0020
    105  CD1        3.8330   33.4580   36.3170 C.3    85  ILE85       0.0001
    106  N          9.0630   33.7980   37.3940 N.am   86  TYR86      -0.1976
    107  CA        10.4220   33.4150   37.0010 C.3    86  TYR86       0.1639
    108  C         11.2170   32.5900   38.0090 C.2    86  TYR86       0.2290
    109  O         12.2880   32.1040   37.6890 O.2    86  TYR86      -0.2864
    110  CB        11.2510   34.6590   36.6300 C.3    86  TYR86       0.0560
    111  CG        10.8170   35.3020   35.3380 C.ar   86  TYR86      -0.0198
    112  CD1        9.6750   36.0920   35.2840 C.ar   86  TYR86      -0.0009
    113  CD2       11.4960   35.0400   34.1470 C.ar   86  TYR86      -0.0009
    114  CE1        9.2090   36.5970   34.0820 C.ar   86  TYR86       0.0417
    115  CE2       11.0350   35.5410   32.9360 C.ar   86  TYR86       0.0417
    116  CZ         9.8860   36.3160   32.9160 C.ar   86  TYR86       0.1957
    117  OH         9.3930   36.7830   31.7300 O.3    86  TYR86      -0.2866
    118  N         -6.1960   29.9180   36.5760 N.3    94  LYS94      -0.1231
    119  CA        -7.1400   30.0730   35.4700 C.3    94  LYS94       0.1693
    120  C         -6.6060   30.9700   34.3540 C.2    94  LYS94       0.2592
    121  O         -7.1690   31.0070   33.2700 O.2    94  LYS94      -0.2718
    122  CB        -8.4870   30.6150   35.9710 C.3    94  LYS94       0.0285
    123  CG        -8.7830   32.0620   35.6040 C.3    94  LYS94       0.0035
    124  CD        -8.0470   33.0360   36.5080 C.3    94  LYS94       0.0206
    125  CE        -8.5280   34.4630   36.2840 C.3    94  LYS94       0.1093
    126  NZ        -8.1800   35.3260   37.4460 N.3    94  LYS94      -0.1314
    127  N         -5.5170   31.6850   34.6220 N.am   95  PHE95      -0.1976
    128  CA        -4.9210   32.5580   33.6170 C.3    95  PHE95       0.1639
    129  C         -4.3980   31.7530   32.4200 C.2    95  PHE95       0.2290
    130  O         -4.0560   32.3260   31.3920 O.2    95  PHE95      -0.2864
    131  CB        -3.7820   33.3840   34.2340 C.3    95  PHE95       0.0560
    132  CG        -2.4730   32.6510   34.3200 C.ar   95  PHE95      -0.0200
    133  CD1       -1.6040   32.6200   33.2300 C.ar   95  PHE95      -0.0042
    134  CD2       -2.1150   31.9730   35.4840 C.ar   95  PHE95      -0.0042
    135  CE1       -0.3970   31.9240   33.3000 C.ar   95  PHE95      -0.0003
    136  CE2       -0.9080   31.2740   35.5610 C.ar   95  PHE95      -0.0003
    137  CZ        -0.0490   31.2500   34.4670 C.ar   95  PHE95      -0.0000
    138  N          5.2630   27.5480   32.9730 N.3   109  VAL109     -0.1245
    139  CA         5.2030   28.7480   32.1390 C.3   109  VAL109      0.1561
    140  C          6.4710   28.8140   31.2800 C.2   109  VAL109      0.2260
    141  O          6.5300   29.5470   30.3060 O.2   109  VAL109     -0.2867
    142  CB         5.0890   30.0510   32.9790 C.3   109  VAL109      0.0252
    143  CG1        3.7540   30.0870   33.7000 C.3   109  VAL109      0.0019
    144  CG2        6.2350   30.1430   33.9710 C.3   109  VAL109      0.0019
    145  N          9.2550   30.2240   31.6270 N.3   111  ALA111     -0.1245
    146  CA        10.1140   31.3440   31.9660 C.3   111  ALA111      0.1562
    147  C         11.1330   31.0250   33.0560 C.2   111  ALA111      0.2260
    148  O         12.2750   31.4140   32.9500 O.2   111  ALA111     -0.2867
    149  CB         9.2580   32.5390   32.3820 C.3   111  ALA111      0.0290
    150  N          3.9780   48.9620   33.4130 N.3   127  ARG127     -0.1245
    151  CA         2.6040   48.7240   33.7960 C.3   127  ARG127      0.1563
    152  C          2.0730   49.7700   34.7630 C.2   127  ARG127      0.2260
    153  O          2.7370   50.1460   35.7230 O.2   127  ARG127     -0.2867
    154  CB         2.5130   47.3280   34.4210 C.3   127  ARG127      0.0307
    155  CG         1.1240   46.7490   34.5610 C.3   127  ARG127      0.0489
    156  CD         1.2200   45.2690   34.9230 C.3   127  ARG127      0.2205
    157  NE        -0.0270   44.7660   35.4890 N.pl3 127  ARG127     -0.0865
    158  CZ        -0.9580   44.0920   34.8200 C.cat 127  ARG127      0.5346
    159  NH1       -0.8050   43.8090   33.5300 N.pl3 127  ARG127      0.1354
    160  NH2       -2.0610   43.7110   35.4480 N.pl3 127  ARG127      0.1354
    161  N          6.2860   44.0110   28.4230 N.3   158  THR158     -0.1218
    162  CA         7.3550   43.3430   29.1340 C.3   158  THR158      0.1862
    163  C          8.5770   43.2490   28.2370 C.2   158  THR158      0.2287
    164  O          8.4690   43.0360   27.0400 O.2   158  THR158     -0.2866
    165  CB         6.9100   41.9200   29.5490 C.3   158  THR158      0.1770
    166  OG1        5.6580   41.9970   30.2470 O.3   158  THR158     -0.2211
    167  CG2        7.9550   41.2660   30.4480 C.3   158  THR158      0.0375
    168  N         12.2410   41.2810   28.2940 N.3   160  VAL160     -0.1245
    169  CA        13.0730   40.2790   28.9470 C.3   160  VAL160      0.1561
    170  C         14.4320   40.1930   28.2750 C.2   160  VAL160      0.2260
    171  O         14.5260   40.0910   27.0600 O.2   160  VAL160     -0.2867
    172  CB        12.3970   38.8770   28.8960 C.3   160  VAL160      0.0252
    173  CG1       13.2850   37.8350   29.5770 C.3   160  VAL160      0.0019
    174  CG2       11.0140   38.9310   29.5710 C.3   160  VAL160      0.0019
@<TRIPOS>BOND
     1    19    20    2
     2    19    18    1
     3    22    23    1
     4    32    33    2
     5    32    31    1
     6    21    18    1
     7    40    41    1
     8    40    43    1
     9    40    39    1
    10    28    27   ar
    11    23    24    1
    12    23    26    1
    13    41    42    2
    14    43    44    1
    15    18    17    1
    16    24    25    2
    17    24    30   am
    18    30    31    1
    19    31    34    1
    20    17    11   am
    21     3     4    2
    22     3     2    1
    23    27    26    1
    24    27    29   ar
    25    34    35    1
    26     9    10    1
    27    44    45   ar
    28    44    46   ar
    29     1     2    1
    30    11    12    2
    31    11    10    1
    32     2     5    1
    33    10    13    1
    34     5     7    1
    35     5     6    1
    36    35    36    1
    37   164   163    2
    38   171   170    2
    39    13    14    1
    40    36    37   ar
    41    36    38   ar
    42     6     8    1
    43    47    48    1
    44    16    14   am
    45    14    15    2
    46   163   162    1
    47   170   169    1
    48   168   169    1
    49   161   162    1
    50   172   169    1
    51   172   174    1
    52   172   173    1
    53    57    55    1
    54    52    53    1
    55    52    51    1
    56   162   165    1
    57    54    55    2
    58    54    53    1
    59    48    51    1
    60    48    49    1
    61    55    56    1
    62   165   166    1
    63   165   167    1
    64    58    49   am
    65    58    59    1
    66   141   140    2
    67    49    50    2
    68    59    60    1
    69   140   139    1
    70   130   129    2
    71   145   146    1
    72   117   116    1
    73   146   149    1
    74   146   147    1
    75   139   138    1
    76   139   142    1
    77    60    62   am
    78    60    61    2
    79   129   128    1
    80    67    69    1
    81    67    66    1
    82    62    63    1
    83   116   115   ar
    84   116   114   ar
    85   115   113   ar
    86   148   147    2
    87   142   143    1
    88   142   144    1
    89   133   135   ar
    90   133   132   ar
    91   121   120    2
    92   135   137   ar
    93   150   151    1
    94   159   158    1
    95   128   131    1
    96   128   127    1
    97    63    66    1
    98    63    64    1
    99   151   154    1
   100   151   152    1
   101    66    68    1
   102   114   112   ar
   103   113   111   ar
   104   131   132    1
   105   132   134   ar
   106   120   127   am
   107   120   119    1
   108   154   155    1
   109   137   136   ar
   110   155   156    1
   111   152   153    2
   112   158   160    1
   113   158   157    2
   114   156   157    1
   115    64    65    2
   116    64    70   am
   117   104   102    1
   118    76    70    1
   119    76    75    1
   120   112   111   ar
   121   111   110    1
   122   119   122    1
   123   119   118    1
   124   134   136   ar
   125   123   122    1
   126   123   124    1
   127    70    71    1
   128    75    74    1
   129   125   124    1
   130   125   126    1
   131   105   103    1
   132   102   103    1
   133   102    99    1
   134   101   100    2
   135   110   107    1
   136    71    74    1
   137    71    72    1
   138   107   106    1
   139   107   108    1
   140   100   106   am
   141   100    99    1
   142    99    98    1
   143   109   108    2
   144    72    73    2
   145    96    95    2
   146    95    94    1
   147    97    94    1
   148    94    93    1
   149    84    82   ar
   150    77    78    1
   151    82    83   ar
   152    82    81    1
   153    81    78    1
   154    91    92    1
   155    91    90    1
   156    78    79    1
   157    80    79    2
   158    90    89    1
   159    89    86    1
   160    85    86    1
   161    86    87    1
   162    87    88    2
