@<TRIPOS>MOLECULE
tmp/1kj4B00.pdb
 133 126 0 0 0
SMALL
GASTEIGER

@<TRIPOS>ATOM
      1  N         47.5100   35.7910   71.5510 N.3     8  ARG8       -0.1245
      2  CA        48.5040   34.8510   71.0310 C.3     8  ARG8        0.1563
      3  C         48.6300   34.8360   69.5130 C.2     8  ARG8        0.2260
      4  O         47.7200   34.4000   68.8130 O.2     8  ARG8       -0.2867
      5  CB        48.1910   33.4420   71.5250 C.3     8  ARG8        0.0307
      6  CG        48.1650   33.3170   73.0340 C.3     8  ARG8        0.0489
      7  CD        48.1430   31.8520   73.4810 C.3     8  ARG8        0.2205
      8  NE        48.2180   31.7190   74.9340 N.pl3   8  ARG8       -0.0865
      9  CZ        47.1740   31.7980   75.7490 C.cat   8  ARG8        0.5346
     10  NH1       45.9580   31.9970   75.2580 N.pl3   8  ARG8        0.1354
     11  NH2       47.3470   31.7090   77.0590 N.pl3   8  ARG8        0.1354
     12  N         53.1110   29.1490   66.8930 N.3    23  LEU23      -0.1245
     13  CA        53.0800   30.4180   67.5740 C.3    23  LEU23       0.1561
     14  C         54.2580   31.2380   67.0630 C.2    23  LEU23       0.2260
     15  O         55.3730   30.7270   66.9530 O.2    23  LEU23      -0.2867
     16  CB        53.1950   30.1780   69.0740 C.3    23  LEU23       0.0270
     17  CG        53.0520   31.4160   69.9450 C.3    23  LEU23       0.0019
     18  CD1       51.6650   31.9960   69.7860 C.3    23  LEU23       0.0001
     19  CD2       53.3040   31.0450   71.3870 C.3    23  LEU23       0.0001
     20  N         56.7940   33.2110   67.9020 N.3    25  ASN25      -0.1240
     21  CA        57.4760   33.5260   69.1400 C.3    25  ASN25       0.1653
     22  C         58.8430   34.1750   68.9660 C.2    25  ASN25       0.2266
     23  O         59.8380   33.4970   68.7030 O.2    25  ASN25      -0.2867
     24  CB        57.5720   32.2310   69.9500 C.3    25  ASN25       0.1155
     25  CG        58.2610   32.4140   71.2540 C.2    25  ASN25       0.2627
     26  OD1       58.1790   33.4730   71.8620 O.2    25  ASN25      -0.2716
     27  ND2       58.9360   31.3730   71.7120 N.am   25  ASN25      -0.0877
     28  N         60.4840   35.3160   71.1820 N.3    27  GLY27      -0.1210
     29  CA        61.2230   35.0370   72.3990 C.3    27  GLY27       0.1956
     30  C         61.9930   33.7330   72.3750 C.2    27  GLY27       0.2612
     31  O         62.6820   33.3980   73.3350 O.2    27  GLY27      -0.2717
     32  N         61.8750   32.9880   71.2820 N.am   28  ALA28      -0.1965
     33  CA        62.5840   31.7170   71.1430 C.3    28  ALA28       0.1728
     34  C         63.7060   31.8860   70.1310 C.2    28  ALA28       0.2616
     35  O         63.5950   32.6880   69.2000 O.2    28  ALA28      -0.2715
     36  CB        61.6240   30.6200   70.6790 C.3    28  ALA28       0.0334
     37  N         64.7880   31.1350   70.3070 N.am   29  ASP29      -0.1957
     38  CA        65.9070   31.2320   69.3800 C.3    29  ASP29       0.1840
     39  C         65.7490   30.2500   68.2380 C.2    29  ASP29       0.2622
     40  O         65.9720   30.5980   67.0850 O.2    29  ASP29      -0.2715
     41  CB        67.2340   30.9870   70.1030 C.3    29  ASP29       0.1450
     42  CG        67.5370   32.0600   71.1390 C.2    29  ASP29       0.3671
     43  OD1       67.4600   33.2660   70.7980 O.co2  29  ASP29      -0.2456
     44  OD2       67.8540   31.6960   72.2950 O.co2  29  ASP29      -0.2456
     45  N         65.3520   29.0250   68.5570 N.am   30  ASP30      -0.1971
     46  CA        65.1640   28.0080   67.5310 C.3    30  ASP30       0.1709
     47  C         63.6730   27.8090   67.2730 C.2    30  ASP30       0.2293
     48  O         62.8440   28.5440   67.8140 O.2    30  ASP30      -0.2864
     49  CB        65.7980   26.6880   67.9880 C.3    30  ASP30       0.1436
     50  CG        67.3080   26.7980   68.1890 C.2    30  ASP30       0.3671
     51  OD1       68.0220   27.0380   67.1870 O.co2  30  ASP30      -0.2456
     52  OD2       67.7820   26.6460   69.3420 O.co2  30  ASP30      -0.2456
     53  N         60.6890   24.9930   67.5570 N.3    32  VAL32      -0.1245
     54  CA        60.3080   23.7100   68.1480 C.3    32  VAL32       0.1561
     55  C         58.8730   23.3090   67.8020 C.2    32  VAL32       0.2260
     56  O         57.9360   24.0590   68.0600 O.2    32  VAL32      -0.2867
     57  CB        60.4290   23.7580   69.6770 C.3    32  VAL32       0.0252
     58  CG1       60.4040   22.3520   70.2400 C.3    32  VAL32       0.0019
     59  CG2       61.7010   24.4840   70.0710 C.3    32  VAL32       0.0019
     60  N         69.5360   17.2960   71.4360 N.3    45  LYS45      -0.1231
     61  CA        69.7560   18.6420   71.9220 C.3    45  LYS45       0.1693
     62  C         68.7800   18.9550   73.0580 C.2    45  LYS45       0.2592
     63  O         67.6190   18.5330   73.0480 O.2    45  LYS45      -0.2718
     64  CB        69.5770   19.6280   70.7640 C.3    45  LYS45       0.0285
     65  CG        70.0620   21.0320   71.0310 C.3    45  LYS45       0.0035
     66  CD        69.8300   21.8950   69.8010 C.3    45  LYS45       0.0206
     67  CE        70.2450   23.3520   70.0120 C.3    45  LYS45       0.1093
     68  NZ        71.7210   23.5870   69.9690 N.3    45  LYS45      -0.1314
     69  N         69.2710   19.6700   74.0580 N.am   46  MET46      -0.1965
     70  CA        68.4410   20.0610   75.1770 C.3    46  MET46       0.1736
     71  C         68.1290   21.5330   74.9530 C.2    46  MET46       0.2616
     72  O         69.0260   22.3270   74.6610 O.2    46  MET46      -0.2715
     73  CB        69.2060   19.9070   76.4890 C.3    46  MET46       0.0427
     74  CG        69.6130   18.4950   76.8300 C.3    46  MET46       0.0599
     75  SD        68.2540   17.5020   77.4320 S.3    46  MET46      -0.1393
     76  CE        68.0350   18.1790   79.0690 C.3    46  MET46       0.0692
     77  N         66.8600   21.8970   75.0480 N.am   47  ILE47      -0.1963
     78  CA        66.4760   23.2900   74.8930 C.3    47  ILE47       0.1727
     79  C         65.6990   23.5650   76.1600 C.2    47  ILE47       0.2617
     80  O         65.0330   22.6750   76.6770 O.2    47  ILE47      -0.2715
     81  CB        65.5830   23.5260   73.6430 C.3    47  ILE47       0.0290
     82  CG1       64.3290   22.6590   73.7180 C.3    47  ILE47       0.0022
     83  CG2       66.3630   23.2070   72.3780 C.3    47  ILE47       0.0023
     84  CD1       63.4120   22.8160   72.5380 C.3    47  ILE47       0.0001
     85  N         65.8030   24.7790   76.6800 N.am   48  GLY48      -0.1940
     86  CA        65.0910   25.0920   77.9010 C.3    48  GLY48       0.2014
     87  C         64.4710   26.4710   77.9330 C.2    48  GLY48       0.2639
     88  O         64.8240   27.3560   77.1460 O.2    48  GLY48      -0.2714
     89  N         63.5370   26.6380   78.8650 N.am   49  GLY49      -0.1939
     90  CA        62.8410   27.8990   79.0480 C.3    49  GLY49       0.2014
     91  C         62.2510   27.8580   80.4350 C.2    49  GLY49       0.2638
     92  O         62.7460   27.1290   81.2910 O.2    49  GLY49      -0.2714
     93  N         61.1950   28.6230   80.6700 N.am   50  ILE50      -0.1977
     94  CA        60.5680   28.6220   81.9890 C.3    50  ILE50       0.1596
     95  C         59.9470   27.2550   82.2200 C.2    50  ILE50       0.2287
     96  O         59.1670   26.7730   81.4010 O.2    50  ILE50      -0.2864
     97  CB        59.4730   29.7180   82.1060 C.3    50  ILE50       0.0276
     98  CG1       60.1230   31.0860   82.3020 C.3    50  ILE50       0.0022
     99  CG2       58.5520   29.4190   83.2680 C.3    50  ILE50       0.0022
    100  CD1       59.1920   32.2060   82.0290 C.3    50  ILE50       0.0001
    101  N         64.0080   22.0020   81.0400 N.3    53  PHE53      -0.1241
    102  CA        64.5450   21.5220   79.7680 C.3    53  PHE53       0.1605
    103  C         63.8380   20.2770   79.2640 C.2    53  PHE53       0.2264
    104  O         63.3090   19.4950   80.0460 O.2    53  PHE53      -0.2867
    105  CB        66.0380   21.2100   79.8930 C.3    53  PHE53       0.0534
    106  CG        66.9020   22.4290   80.0030 C.ar   53  PHE53      -0.0203
    107  CD1       66.8660   23.2220   81.1450 C.ar   53  PHE53      -0.0042
    108  CD2       67.7320   22.8070   78.9440 C.ar   53  PHE53      -0.0042
    109  CE1       67.6380   24.3820   81.2370 C.ar   53  PHE53      -0.0003
    110  CE2       68.5130   23.9660   79.0180 C.ar   53  PHE53      -0.0003
    111  CZ        68.4640   24.7580   80.1710 C.ar   53  PHE53      -0.0000
    112  N         54.7840   21.6660   74.5690 N.3    81  PRO81      -0.2102
    113  CA        53.3360   21.7950   74.7650 C.3    81  PRO81       0.1504
    114  C         52.6330   22.4860   73.5930 C.2    81  PRO81       0.2575
    115  O         51.4170   22.3490   73.4220 O.2    81  PRO81      -0.2718
    116  CB        53.2340   22.5820   76.0690 C.3    81  PRO81       0.0282
    117  CG        54.4680   23.4110   76.0550 C.3    81  PRO81       0.0208
    118  CD        55.5130   22.4180   75.6030 C.3    81  PRO81       0.0893
    119  N         53.4030   23.2220   72.7910 N.am   82  VAL82      -0.1980
    120  CA        52.8680   23.9220   71.6220 C.3    82  VAL82       0.1595
    121  C         53.9310   24.0920   70.5660 C.2    82  VAL82       0.2287
    122  O         55.1220   24.1000   70.8760 O.2    82  VAL82      -0.2864
    123  CB        52.3420   25.3180   71.9820 C.3    82  VAL82       0.0276
    124  CG1       51.4480   25.1880   73.1280 C.3    82  VAL82       0.0022
    125  CG2       53.4750   26.2720   72.3370 C.3    82  VAL82       0.0022
    126  N         56.1990   26.0420   68.0520 N.3    84  ILE84      -0.1245
    127  CA        56.7650   27.3780   68.1350 C.3    84  ILE84       0.1561
    128  C         57.6740   27.6780   66.9570 C.2    84  ILE84       0.2260
    129  O         58.5390   26.8770   66.5980 O.2    84  ILE84      -0.2867
    130  CB        57.5720   27.5610   69.4380 C.3    84  ILE84       0.0252
    131  CG1       56.6850   27.2860   70.6440 C.3    84  ILE84       0.0019
    132  CG2       58.1080   28.9800   69.5350 C.3    84  ILE84       0.0019
    133  CD1       57.4410   27.3450   71.9450 C.3    84  ILE84       0.0001
@<TRIPOS>BOND
     1   129   128    2
     2    12    13    1
     3    15    14    2
     4   128   127    1
     5    14    13    1
     6    40    39    2
     7    51    50   ar
     8    47    46    1
     9    47    48    2
    10    46    49    1
    11    46    45    1
    12    53    54    1
    13    13    16    1
    14    55    56    2
    15    55    54    1
    16    20    21    1
    17    49    50    1
    18   126   127    1
    19   127   130    1
    20    54    57    1
    21    50    52   ar
    22    39    45   am
    23    39    38    1
    24    23    22    2
    25     4     3    2
    26    22    21    1
    27    16    17    1
    28    21    24    1
    29    35    34    2
    30    38    41    1
    31    38    37    1
    32   130   132    1
    33   130   131    1
    34     3     2    1
    35    57    59    1
    36    57    58    1
    37    18    17    1
    38    66    67    1
    39    66    65    1
    40    17    19    1
    41    24    25    1
    42    68    67    1
    43    41    42    1
    44    34    37   am
    45    34    33    1
    46   121   122    2
    47   121   120    1
    48   131   133    1
    49    36    33    1
    50    64    65    1
    51    64    61    1
    52    43    42   ar
    53     2     5    1
    54     2     1    1
    55    42    44   ar
    56    33    32    1
    57    28    29    1
    58    25    27   am
    59    25    26    2
    60    32    30   am
    61    60    61    1
    62     5     6    1
    63   120   123    1
    64   120   119    1
    65    61    62    1
    66   123   125    1
    67   123   124    1
    68    30    29    1
    69    30    31    2
    70    83    81    1
    71    84    82    1
    72   119   114   am
    73     6     7    1
    74    63    62    2
    75    62    69   am
    76   115   114    2
    77     7     8    1
    78   114   113    1
    79    81    82    1
    80    81    78    1
    81    69    70    1
    82   112   113    1
    83   112   118    1
    84    72    71    2
    85   113   116    1
    86    78    77    1
    87    78    79    1
    88     8     9    2
    89    71    77   am
    90    71    70    1
    91    70    73    1
    92    10     9    1
    93   118   117    1
    94     9    11    1
    95   117   116    1
    96    79    80    2
    97    79    85   am
    98    73    74    1
    99    85    86    1
   100    74    75    1
   101    88    87    2
   102    75    76    1
   103    86    87    1
   104    87    89   am
   105    89    90    1
   106   108   110   ar
   107   108   106   ar
   108   110   111   ar
   109    90    91    1
   110   103   102    1
   111   103   104    2
   112   102   105    1
   113   102   101    1
   114   105   106    1
   115   106   107   ar
   116   111   109   ar
   117    91    93   am
   118    91    92    2
   119    93    94    1
   120   107   109   ar
   121    96    95    2
   122    94    97    1
   123    94    95    1
   124   100    98    1
   125    97    98    1
   126    97    99    1
