@<TRIPOS>MOLECULE
tmp/1kj9B00.pdb
 200 187 0 0 0
SMALL
GASTEIGER

@<TRIPOS>ATOM
      1  N         10.5030   11.0500    1.2560 N.3    83  GLU83      -0.1245
      2  CA         9.4520   10.5390    0.3890 C.3    83  GLU83       0.1567
      3  C          8.3610    9.7640    1.1440 C.2    83  GLU83       0.2260
      4  O          7.1760    9.8330    0.7950 O.2    83  GLU83      -0.2867
      5  CB        10.1340    9.6150   -0.6270 C.3    83  GLU83       0.0388
      6  CG         9.8870    9.9220   -2.1080 C.3    83  GLU83       0.1160
      7  CD        10.6420    8.9420   -2.9670 C.2    83  GLU83       0.3649
      8  OE1       10.1680    7.8870   -3.3840 O.co2  83  GLU83      -0.2457
      9  OE2       11.8850    9.3010   -3.1520 O.co2  83  GLU83      -0.2457
     10  N          7.8800    6.8560   -8.9160 N.3   113  ARG113     -0.1245
     11  CA         8.6640    6.9530  -10.1480 C.3   113  ARG113      0.1563
     12  C          7.8380    7.0890  -11.4230 C.2   113  ARG113      0.2260
     13  O          8.2550    7.7200  -12.4100 O.2   113  ARG113     -0.2867
     14  CB         9.7200    5.8480  -10.2850 C.3   113  ARG113      0.0307
     15  CG        10.4750    5.5170   -8.9970 C.3   113  ARG113      0.0489
     16  CD        11.6030    4.4880   -9.1860 C.3   113  ARG113      0.2205
     17  NE        12.2930    4.2880   -7.9130 N.pl3 113  ARG113     -0.0865
     18  CZ        13.3980    4.9590   -7.6020 C.cat 113  ARG113      0.5346
     19  NH1       13.9200    5.8270   -8.4770 N.pl3 113  ARG113      0.1354
     20  NH2       13.9770    4.7560   -6.4170 N.pl3 113  ARG113      0.1354
     21  N         16.8560    7.7750  -19.0990 N.3   129  SER129     -0.1217
     22  CA        17.2770    6.4430  -19.5070 C.3   129  SER129      0.1889
     23  C         16.0480    5.8130  -20.1410 C.2   129  SER129      0.2288
     24  O         14.9460    6.3760  -20.0650 O.2   129  SER129     -0.2866
     25  CB        17.5880    5.6180  -18.2740 C.3   129  SER129      0.2089
     26  OG        16.3910    5.4760  -17.5260 O.3   129  SER129     -0.2183
     27  N         18.5680   -1.8990  -14.6190 N.3   152  ILE152     -0.1245
     28  CA        18.2510   -1.6800  -13.2330 C.3   152  ILE152      0.1561
     29  C         16.7850   -1.8490  -12.9700 C.2   152  ILE152      0.2260
     30  O         15.9050   -1.3800  -13.7070 O.2   152  ILE152     -0.2867
     31  CB        18.7460   -0.3290  -12.6710 C.3   152  ILE152      0.0252
     32  CG1       20.2720   -0.2510  -12.6870 C.3   152  ILE152      0.0019
     33  CG2       18.2250   -0.1350  -11.2430 C.3   152  ILE152      0.0019
     34  CD1       20.8150    0.5000  -13.8950 C.3   152  ILE152      0.0001
     35  N         13.9290   -1.1750  -10.1370 N.3   154  LYS154     -0.1245
     36  CA        13.6210   -0.4760   -8.9150 C.3   154  LYS154      0.1561
     37  C         12.1410   -0.5050   -8.5860 C.2   154  LYS154      0.2260
     38  O         11.2910   -0.4360   -9.4800 O.2   154  LYS154     -0.2867
     39  CB        14.1550    0.9730   -8.9500 C.3   154  LYS154      0.0271
     40  CG        15.1400    1.2820  -10.0900 C.3   154  LYS154      0.0035
     41  CD        15.6100    2.7390  -10.0980 C.3   154  LYS154      0.0206
     42  CE        16.8700    2.9960  -10.9320 C.3   154  LYS154      0.1093
     43  NZ        17.0410    4.3980  -11.3940 N.3   154  LYS154     -0.1314
     44  N         10.7120    3.4470   -4.0210 N.3   158  SER158     -0.1202
     45  CA        12.0200    3.0940   -3.4680 C.3   158  SER158      0.2020
     46  C         12.9800    4.2960   -3.3610 C.2   158  SER158      0.2619
     47  O         12.9120    5.2690   -4.1120 O.2   158  SER158     -0.2717
     48  CB        12.6750    2.0900   -4.3840 C.3   158  SER158      0.2103
     49  OG        12.4970    2.5620   -5.7050 O.3   158  SER158     -0.2182
     50  N         13.9130    4.2140   -2.4230 N.am  159  SER159     -0.1937
     51  CA        14.9160    5.2490   -2.2010 C.3   159  SER159      0.2055
     52  C         16.1700    4.6160   -1.6300 C.2   159  SER159      0.2644
     53  O         16.1640    3.4340   -1.2550 O.2   159  SER159     -0.2714
     54  CB        14.4310    6.4220   -1.3440 C.3   159  SER159      0.2130
     55  OG        14.7760    6.2810    0.0190 O.3   159  SER159     -0.2179
     56  N         17.2270    5.4170   -1.5580 N.am  160  SER160     -0.1935
     57  CA        18.5100    4.9600   -1.0350 C.3   160  SER160      0.2055
     58  C         18.9170    3.6230   -1.6600 C.2   160  SER160      0.2643
     59  O         19.7050    2.8590   -1.1070 O.2   160  SER160     -0.2714
     60  CB        18.5790    4.9760    0.4960 C.3   160  SER160      0.2130
     61  OG        19.8870    4.6800    0.9630 O.3   160  SER160     -0.2179
     62  N         18.3700    3.3500   -2.8400 N.am  161  GLY161     -0.1954
     63  CA        18.6460    2.1070   -3.5350 C.3   161  GLY161      0.1869
     64  C         17.7850    0.9230   -3.0350 C.2   161  GLY161      0.2309
     65  O         17.7470   -0.1260   -3.6710 O.2   161  GLY161     -0.2863
     66  N         16.5180   -2.3520   -4.9470 N.3   164  GLN164     -0.1245
     67  CA        17.0220   -2.2710   -6.3150 C.3   164  GLN164      0.1566
     68  C         17.9920   -3.3820   -6.6180 C.2   164  GLN164      0.2260
     69  O         18.5790   -3.9810   -5.7170 O.2   164  GLN164     -0.2867
     70  CB        17.7410   -0.9110   -6.5090 C.3   164  GLN164      0.0367
     71  CG        17.9480   -0.3800   -7.9480 C.3   164  GLN164      0.0905
     72  CD        18.2500    1.1380   -7.9610 C.2   164  GLN164      0.2608
     73  OE1       19.1470    1.6310   -8.6830 O.2   164  GLN164     -0.2717
     74  NE2       17.5170    1.9130   -7.1370 N.am  164  GLN164     -0.0878
     75  N         20.9750   -4.3520   -9.9110 N.3   166  PHE166     -0.1241
     76  CA        21.6320   -4.0930  -11.1980 C.3   166  PHE166      0.1605
     77  C         21.7050   -5.4540  -11.8390 C.2   166  PHE166      0.2264
     78  O         22.3030   -6.3830  -11.2880 O.2   166  PHE166     -0.2867
     79  CB        23.0790   -3.5430  -11.1150 C.3   166  PHE166      0.0534
     80  CG        23.6920   -3.0510  -12.4350 C.ar  166  PHE166     -0.0203
     81  CD1       23.6520   -1.6920  -12.7440 C.ar  166  PHE166     -0.0042
     82  CD2       24.3300   -3.8970  -13.3460 C.ar  166  PHE166     -0.0042
     83  CE1       24.2020   -1.1700  -13.9140 C.ar  166  PHE166     -0.0003
     84  CE2       24.8850   -3.4030  -14.5270 C.ar  166  PHE166     -0.0003
     85  CZ        24.8290   -2.0370  -14.8070 C.ar  166  PHE166     -0.0000
     86  N         14.9090    0.1410  -15.8730 N.3   190  GLU190     -0.1231
     87  CA        15.6150    1.1550  -16.6240 C.3   190  GLU190      0.1699
     88  C         16.8460    0.6560  -17.3380 C.2   190  GLU190      0.2593
     89  O         17.5790   -0.2170  -16.8550 O.2   190  GLU190     -0.2718
     90  CB        16.0980    2.3080  -15.7150 C.3   190  GLU190      0.0402
     91  CG        15.0290    3.3260  -15.3070 C.3   190  GLU190      0.1161
     92  CD        15.5780    4.1750  -14.2060 C.2   190  GLU190      0.3649
     93  OE1       16.7270    4.5640  -14.2070 O.co2 190  GLU190     -0.2457
     94  OE2       14.7230    4.3920  -13.2450 O.co2 190  GLU190     -0.2457
     95  N         17.0720    1.2910  -18.4700 N.am  191  GLY191     -0.1942
     96  CA        18.2420    1.0370  -19.2790 C.3   191  GLY191      0.2014
     97  C         19.4480    1.5790  -18.5260 C.2   191  GLY191      0.2639
     98  O         19.3290    2.3960  -17.6200 O.2   191  GLY191     -0.2714
     99  N         20.6230    1.1350  -18.8710 N.am  192  VAL192     -0.1963
    100  CA        21.7530    1.6450  -18.1590 C.3   192  VAL192      0.1727
    101  C         22.3990    2.7470  -18.9590 C.2   192  VAL192      0.2616
    102  O         22.6870    2.5870  -20.1450 O.2   192  VAL192     -0.2715
    103  CB        22.7460    0.5760  -17.7190 C.3   192  VAL192      0.0290
    104  CG1       24.0680    1.2560  -17.3710 C.3   192  VAL192      0.0023
    105  CG2       22.1930   -0.1570  -16.4990 C.3   192  VAL192      0.0023
    106  N         22.5830    3.8960  -18.3060 N.am  193  VAL193     -0.1977
    107  CA        23.2090    5.0480  -18.9500 C.3   193  VAL193      0.1596
    108  C         24.7040    5.0360  -18.6480 C.2   193  VAL193      0.2287
    109  O         25.0850    4.9350  -17.4790 O.2   193  VAL193     -0.2864
    110  CB        22.6400    6.4070  -18.4450 C.3   193  VAL193      0.0276
    111  CG1       23.3950    7.5910  -19.0470 C.3   193  VAL193      0.0022
    112  CG2       21.1330    6.6110  -18.6520 C.3   193  VAL193      0.0022
    113  N         27.3330    7.3000  -18.3560 N.3   195  PHE195     -0.1241
    114  CA        27.6880    8.6900  -18.2810 C.3   195  PHE195      0.1605
    115  C         29.1620    8.8840  -17.9830 C.2   195  PHE195      0.2264
    116  O         29.8320    7.9330  -17.6130 O.2   195  PHE195     -0.2867
    117  CB        26.8190    9.3050  -17.1530 C.3   195  PHE195      0.0534
    118  CG        26.8100    8.5250  -15.8420 C.ar  195  PHE195     -0.0203
    119  CD1       25.7560    7.6690  -15.5020 C.ar  195  PHE195     -0.0042
    120  CD2       27.8540    8.6520  -14.9250 C.ar  195  PHE195     -0.0042
    121  CE1       25.7240    6.9670  -14.2940 C.ar  195  PHE195     -0.0003
    122  CE2       27.8520    7.9540  -13.7150 C.ar  195  PHE195     -0.0003
    123  CZ        26.7820    7.1140  -13.3950 C.ar  195  PHE195     -0.0000
    124  N         28.0270   11.8770  -12.7600 N.3   198  GLU198     -0.1245
    125  CA        26.7060   12.2810  -12.3210 C.3   198  GLU198      0.1567
    126  C         26.8580   13.5830  -11.5870 C.2   198  GLU198      0.2260
    127  O         27.9020   13.8580  -11.0060 O.2   198  GLU198     -0.2867
    128  CB        26.1750   11.3480  -11.2260 C.3   198  GLU198      0.0388
    129  CG        25.3720   10.1390  -11.6730 C.3   198  GLU198      0.1160
    130  CD        24.8710    9.4430  -10.4490 C.2   198  GLU198      0.3649
    131  OE1       23.7170    9.5390  -10.0500 O.co2 198  GLU198     -0.2457
    132  OE2       25.8250    8.8170   -9.8020 O.co2 198  GLU198     -0.2457
    133  N         29.5670   13.6940   -7.2520 N.3   218  HIS218     -0.1241
    134  CA        29.5830   12.7880   -6.1120 C.3   218  HIS218      0.1621
    135  C         29.9340   11.3580   -6.5000 C.2   218  HIS218      0.2264
    136  O         29.9210   10.9840   -7.6820 O.2   218  HIS218     -0.2867
    137  CB        28.2350   12.7610   -5.3490 C.3   218  HIS218      0.0745
    138  CG        27.0240   12.5170   -6.2260 C.ar  218  HIS218      0.0817
    139  ND1       26.6550   11.2300   -6.5980 N.ar  218  HIS218     -0.2268
    140  CD2       26.1200   13.4030   -6.7740 C.ar  218  HIS218      0.1154
    141  CE1       25.5700   11.3570   -7.3570 C.ar  218  HIS218      0.1986
    142  NE2       25.2180   12.6410   -7.4780 N.ar  218  HIS218     -0.2212
    143  N         28.8160    7.5000   -5.2100 N.3   220  GLN220     -0.1245
    144  CA        27.8030    6.6820   -4.5560 C.3   220  GLN220      0.1566
    145  C         28.3910    5.2870   -4.3490 C.2   220  GLN220      0.2260
    146  O         29.2370    4.8190   -5.1190 O.2   220  GLN220     -0.2867
    147  CB        26.5100    6.5450   -5.4230 C.3   220  GLN220      0.0367
    148  CG        25.8110    7.8660   -5.8000 C.3   220  GLN220      0.0905
    149  CD        24.6860    8.2760   -4.8570 C.2   220  GLN220      0.2608
    150  OE1       24.4700    9.4810   -4.5760 O.2   220  GLN220     -0.2717
    151  NE2       23.9530    7.2700   -4.3720 N.am  220  GLN220     -0.0878
    152  N         24.3910    2.3230   -2.6370 N.3   223  GLY223     -0.1225
    153  CA        23.2560    3.2490   -2.5920 C.3   223  GLY223      0.1811
    154  C         23.3610    4.4690   -1.6730 C.2   223  GLY223      0.2280
    155  O         22.3740    5.1660   -1.4500 O.2   223  GLY223     -0.2866
    156  N         18.8500   15.4050  -10.1710 N.3   262  GLU262     -0.1245
    157  CA        19.8600   14.3840  -10.4430 C.3   262  GLU262      0.1567
    158  C         19.9870   14.2030  -11.9310 C.2   262  GLU262      0.2260
    159  O         18.9930   13.9470  -12.6130 O.2   262  GLU262     -0.2867
    160  CB        19.4980   13.0460   -9.7770 C.3   262  GLU262      0.0388
    161  CG        19.4600   13.1260   -8.2450 C.3   262  GLU262      0.1160
    162  CD        19.2360   11.8020   -7.5250 C.2   262  GLU262      0.3649
    163  OE1       18.9370   11.7490   -6.3500 O.co2 262  GLU262     -0.2457
    164  OE2       19.3610   10.7150   -8.2640 O.co2 262  GLU262     -0.2457
    165  N         22.8380   12.9850  -15.3860 N.3   264  PHE264     -0.1241
    166  CA        23.9940   12.2580  -15.8630 C.3   264  PHE264      0.1605
    167  C         24.5720   13.0650  -16.9970 C.2   264  PHE264      0.2264
    168  O         23.8500   13.6370  -17.8230 O.2   264  PHE264     -0.2867
    169  CB        23.6880   10.7940  -16.2990 C.3   264  PHE264      0.0534
    170  CG        22.9520    9.8890  -15.2910 C.ar  264  PHE264     -0.0203
    171  CD1       23.4860    9.5990  -14.0350 C.ar  264  PHE264     -0.0042
    172  CD2       21.7140    9.3100  -15.6020 C.ar  264  PHE264     -0.0042
    173  CE1       22.8170    8.7710  -13.1300 C.ar  264  PHE264     -0.0003
    174  CE2       21.0250    8.4730  -14.7170 C.ar  264  PHE264     -0.0003
    175  CZ        21.5880    8.2070  -13.4690 C.ar  264  PHE264     -0.0000
    176  N         17.5910   12.1670  -14.5430 N.3   273  SER273     -0.1202
    177  CA        17.4740   10.9100  -13.7910 C.3   273  SER273      0.2020
    178  C         16.2400   10.9890  -12.8950 C.2   273  SER273      0.2618
    179  O         15.2350   10.2870  -13.0890 O.2   273  SER273     -0.2717
    180  CB        18.7680   10.4800  -13.0710 C.3   273  SER273      0.2103
    181  OG        18.5820    9.3190  -12.2750 O.3   273  SER273     -0.2182
    182  N         16.2960   11.9000  -11.9070 N.am  274  GLU274     -0.1979
    183  CA        15.1830   12.1010  -10.9860 C.3   274  GLU274      0.1602
    184  C         15.4470   13.4140  -10.2380 C.2   274  GLU274      0.2287
    185  O         16.4690   14.0890  -10.5100 O.2   274  GLU274     -0.2864
    186  CB        14.9410   10.9350   -9.9830 C.3   274  GLU274      0.0415
    187  CG        16.1640   10.6790   -9.0600 C.3   274  GLU274      0.1163
    188  CD        15.9610    9.7690   -7.8720 C.2   274  GLU274      0.3649
    189  OE1       16.7820    9.6590   -6.9770 O.co2 274  GLU274     -0.2457
    190  OE2       14.8170    9.1460   -7.8520 O.co2 274  GLU274     -0.2457
    191  N         18.9870   17.9400   -0.9440 N.3   280  HIS280     -0.1241
    192  CA        19.5490   16.6330   -1.2590 C.3   280  HIS280      0.1621
    193  C         20.8070   16.3680   -0.4450 C.2   280  HIS280      0.2264
    194  O         21.6350   17.2520   -0.1870 O.2   280  HIS280     -0.2867
    195  CB        19.8200   16.7090   -2.7790 C.3   280  HIS280      0.0745
    196  CG        20.1150   15.4300   -3.4650 C.ar  280  HIS280      0.0817
    197  ND1       21.3680   14.8260   -3.3820 N.ar  280  HIS280     -0.2268
    198  CD2       19.3190   14.6740   -4.2810 C.ar  280  HIS280      0.1154
    199  CE1       21.3000   13.7070   -4.1350 C.ar  280  HIS280      0.1986
    200  NE2       20.0920   13.6000   -4.6770 N.ar  280  HIS280     -0.2212
@<TRIPOS>BOND
     1   102   101    2
     2    23    24    2
     3    23    22    1
     4    22    21    1
     5    22    25    1
     6    96    97    1
     7    96    95    1
     8   111   110    1
     9   101   106   am
    10   101   100    1
    11   107   108    1
    12   107   110    1
    13   107   106    1
    14    99    97   am
    15    99   100    1
    16   112   110    1
    17   108   109    2
    18    97    98    2
    19    95    88   am
    20   113   114    1
    21   114   115    1
    22   114   117    1
    23    25    26    1
    24   100   103    1
    25   115   116    2
    26   168   167    2
    27   103   104    1
    28   103   105    1
    29    88    89    2
    30    88    87    1
    31   117   118    1
    32   167   166    1
    33    87    86    1
    34    87    90    1
    35   169   166    1
    36   169   170    1
    37   166   165    1
    38   118   119   ar
    39   118   120   ar
    40    90    91    1
    41   172   170   ar
    42   172   174   ar
    43   119   121   ar
    44    91    92    1
    45   170   171   ar
    46   120   122   ar
    47    85    84   ar
    48    85    83   ar
    49   174   175   ar
    50    27    28    1
    51   176   177    1
    52    84    82   ar
    53   121   123   ar
    54    93    92   ar
    55    92    94   ar
    56   171   173   ar
    57    83    81   ar
    58    34    32    1
    59   177   180    1
    60   177   178    1
    61   122   123   ar
    62    30    29    2
    63   175   173   ar
    64    82    80   ar
    65    28    29    1
    66    28    31    1
    67   179   178    2
    68   180   181    1
    69   178   182   am
    70   124   125    1
    71    81    80   ar
    72    32    31    1
    73    31    33    1
    74   159   158    2
    75    80    79    1
    76    13    12    2
    77   125   126    1
    78   125   128    1
    79   158   157    1
    80   182   183    1
    81    77    78    2
    82    77    76    1
    83   129   128    1
    84   129   130    1
    85   126   127    2
    86    12    11    1
    87    43    42    1
    88    76    79    1
    89    76    75    1
    90   183   184    1
    91   183   186    1
    92    42    41    1
    93   185   184    2
    94   130   131   ar
    95   130   132   ar
    96   157   156    1
    97   157   160    1
    98    14    11    1
    99    14    15    1
   100    11    10    1
   101    35    36    1
   102    41    40    1
   103    40    39    1
   104   186   187    1
   105   160   161    1
   106    38    37    2
   107    16    15    1
   108    16    17    1
   109   187   188    1
   110    39    36    1
   111    36    37    1
   112    73    72    2
   113    19    18    1
   114   164   162   ar
   115   161   162    1
   116    72    71    1
   117    72    74   am
   118    71    70    1
   119    17    18    2
   120   188   190   ar
   121   188   189   ar
   122   136   135    2
   123    18    20    1
   124   162   163   ar
   125   142   141   ar
   126   142   140   ar
   127   141   139   ar
   128   133   134    1
   129   140   138   ar
   130    68    67    1
   131    68    69    2
   132   139   138   ar
   133    70    67    1
   134   135   134    1
   135    67    66    1
   136   138   137    1
   137   134   137    1
   138   148   147    1
   139   148   149    1
   140    49    48    1
   141   147   144    1
   142   143   144    1
   143   146   145    2
   144   149   150    2
   145   149   151   am
   146   200   198   ar
   147   200   199   ar
   148   144   145    1
   149    48    45    1
   150   198   196   ar
   151   199   197   ar
   152    47    46    2
   153    44    45    1
   154    65    64    2
   155    63    64    1
   156    63    62    1
   157    45    46    1
   158   196   197   ar
   159   196   195    1
   160     8     7   ar
   161    46    50   am
   162     9     7   ar
   163     7     6    1
   164    62    58   am
   165   195   192    1
   166   152   153    1
   167   153   154    1
   168    50    51    1
   169    51    52    1
   170    51    54    1
   171     6     5    1
   172   154   155    2
   173    58    59    2
   174    58    57    1
   175    52    56   am
   176    52    53    2
   177    56    57    1
   178    54    55    1
   179   192   191    1
   180   192   193    1
   181    57    60    1
   182     5     2    1
   183   193   194    2
   184     2     3    1
   185     2     1    1
   186    60    61    1
   187     4     3    2
