@<TRIPOS>MOLECULE
tmp/1kjgB00.pdb
 44 39 0 0 0
SMALL
GASTEIGER

@<TRIPOS>ATOM
      1  N          7.0890   -1.6440   20.2030 N.3    28  ALA28      -0.1245
      2  CA         8.1300   -2.5750   19.7780 C.3    28  ALA28       0.1562
      3  C          8.7330   -3.2760   20.9960 C.2    28  ALA28       0.2260
      4  O          9.1630   -2.6140   21.9440 O.2    28  ALA28      -0.2867
      5  CB         9.2240   -1.8310   19.0100 C.3    28  ALA28       0.0290
      6  N         11.4210   -5.1280   20.9330 N.3    30  ASP30      -0.1239
      7  CA        12.8590   -4.9890   20.7590 C.3    30  ASP30       0.1674
      8  C         13.2920   -3.7170   20.0500 C.2    30  ASP30       0.2266
      9  O         12.4940   -3.0320   19.4160 O.2    30  ASP30      -0.2867
     10  CB        13.4000   -6.1760   19.9650 C.3    30  ASP30       0.1410
     11  CG        13.1320   -7.4940   20.6450 C.2    30  ASP30       0.3668
     12  OD1       13.4950   -7.6300   21.8330 O.co2  30  ASP30      -0.2456
     13  OD2       12.5620   -8.3890   19.9920 O.co2  30  ASP30      -0.2456
     14  N         15.3340   -2.0570   17.0970 N.3    32  VAL32      -0.1245
     15  CA        15.7890   -2.4270   15.7580 C.3    32  VAL32       0.1561
     16  C         16.4120   -1.2330   15.0550 C.2    32  VAL32       0.2260
     17  O         15.7610   -0.2110   14.8570 O.2    32  VAL32      -0.2867
     18  CB        14.6170   -2.9310   14.8850 C.3    32  VAL32       0.0252
     19  CG1       15.1660   -3.6190   13.6420 C.3    32  VAL32       0.0019
     20  CG2       13.7230   -3.8740   15.6890 C.3    32  VAL32       0.0019
     21  N         11.8990  -10.9850   13.0800 N.3    47  ILE47      -0.1231
     22  CA        10.9930  -10.1790   13.8770 C.3    47  ILE47       0.1692
     23  C          9.8090   -9.8510   13.0000 C.2    47  ILE47       0.2593
     24  O          9.9610   -9.6240   11.7970 O.2    47  ILE47      -0.2718
     25  CB        11.6560   -8.8860   14.3910 C.3    47  ILE47       0.0266
     26  CG1       12.2730   -8.1060   13.2330 C.3    47  ILE47       0.0019
     27  CG2       12.6940   -9.2360   15.4470 C.3    47  ILE47       0.0020
     28  CD1       12.7770   -6.7450   13.6280 C.3    47  ILE47       0.0001
     29  N          8.6240   -9.8530   13.5970 N.am   48  GLY48      -0.1942
     30  CA         7.4320   -9.5770   12.8310 C.3    48  GLY48       0.2014
     31  C          6.9130   -8.1710   13.0030 C.2    48  GLY48       0.2639
     32  O          7.1550   -7.5160   14.0160 O.2    48  GLY48      -0.2714
     33  N          6.1980   -7.7110   11.9880 N.am   49  GLY49      -0.1954
     34  CA         5.6110   -6.3870   12.0300 C.3    49  GLY49       0.1869
     35  C          4.3180   -6.4270   11.2440 C.2    49  GLY49       0.2309
     36  O          3.7380   -7.4950   11.0370 O.2    49  GLY49      -0.2863
     37  N         14.4830    2.1720   15.6030 N.3    84  ILE84      -0.1245
     38  CA        13.4500    1.9550   16.5990 C.3    84  ILE84       0.1561
     39  C         13.9870    1.5890   17.9730 C.2    84  ILE84       0.2260
     40  O         14.7720    0.6490   18.1100 O.2    84  ILE84      -0.2867
     41  CB        12.5020    0.8150   16.1330 C.3    84  ILE84       0.0252
     42  CG1       11.7730    1.2420   14.8530 C.3    84  ILE84       0.0019
     43  CG2       11.5280    0.4370   17.2560 C.3    84  ILE84       0.0019
     44  CD1       11.0480    0.1140   14.1400 C.3    84  ILE84       0.0001
@<TRIPOS>BOND
     1    36    35    2
     2    35    34    1
     3    24    23    2
     4    33    34    1
     5    33    31   am
     6    30    31    1
     7    30    29    1
     8    23    29   am
     9    23    22    1
    10    31    32    2
    11    21    22    1
    12    26    28    1
    13    26    25    1
    14    19    18    1
    15    22    25    1
    16    44    42    1
    17    25    27    1
    18    42    41    1
    19    17    16    2
    20    18    20    1
    21    18    15    1
    22    16    15    1
    23    37    38    1
    24    15    14    1
    25    41    38    1
    26    41    43    1
    27    38    39    1
    28    39    40    2
    29     5     2    1
    30     9     8    2
    31     2     1    1
    32     2     3    1
    33    10    11    1
    34    10     7    1
    35    13    11   ar
    36     8     7    1
    37    11    12   ar
    38     7     6    1
    39     3     4    2
