@<TRIPOS>MOLECULE
tmp/1kjiA00.pdb
 208 195 0 0 0
SMALL
GASTEIGER

@<TRIPOS>ATOM
      1  N         28.6850   39.4380   32.2280 N.3    83  GLU83      -0.1245
      2  CA        29.5570   39.7860   33.3420 C.3    83  GLU83       0.1567
      3  C         28.9220   39.5120   34.6990 C.2    83  GLU83       0.2260
      4  O         29.5790   39.0640   35.6380 O.2    83  GLU83      -0.2867
      5  CB        30.1050   41.2470   33.2170 C.3    83  GLU83       0.0388
      6  CG        30.4260   41.6160   31.7470 C.3    83  GLU83       0.1160
      7  CD        31.3380   42.7980   31.5350 C.2    83  GLU83       0.3649
      8  OE1       32.4170   42.7560   30.9320 O.co2  83  GLU83      -0.2457
      9  OE2       30.8230   43.8750   32.0590 O.co2  83  GLU83      -0.2457
     10  N         35.2780   46.6550   35.8970 N.3   113  ARG113     -0.1245
     11  CA        36.3250   47.4460   35.2760 C.3   113  ARG113      0.1563
     12  C         37.6180   47.5120   36.0670 C.2   113  ARG113      0.2260
     13  O         38.7100   47.5990   35.4840 O.2   113  ARG113     -0.2867
     14  CB        35.8600   48.8610   34.9470 C.3   113  ARG113      0.0307
     15  CG        34.7010   48.8950   33.9540 C.3   113  ARG113      0.0489
     16  CD        34.2080   50.3150   33.6270 C.3   113  ARG113      0.2205
     17  NE        32.8700   50.2350   33.0440 N.pl3 113  ARG113     -0.0865
     18  CZ        32.6200   49.9280   31.7690 C.cat 113  ARG113      0.5346
     19  NH1       33.5800   49.7090   30.8830 N.pl3 113  ARG113      0.1354
     20  NH2       31.3720   49.8700   31.3390 N.pl3 113  ARG113      0.1354
     21  N         43.8270   54.3390   28.3860 N.3   129  SER129     -0.1217
     22  CA        43.5200   55.7300   28.7090 C.3   129  SER129      0.1889
     23  C         43.9700   55.9700   30.1690 C.2   129  SER129      0.2288
     24  O         44.2390   55.0310   30.9490 O.2   129  SER129     -0.2866
     25  CB        42.0010   55.9640   28.6690 C.3   129  SER129      0.2089
     26  OG        41.3560   55.1910   29.6740 O.3   129  SER129     -0.2183
     27  N         35.2960   60.6050   30.7750 N.3   152  ILE152     -0.1245
     28  CA        34.1160   59.7650   30.7400 C.3   152  ILE152      0.1561
     29  C         34.0530   59.0680   32.0710 C.2   152  ILE152      0.2260
     30  O         35.0420   58.4720   32.5030 O.2   152  ILE152     -0.2867
     31  CB        34.1070   58.7220   29.5780 C.3   152  ILE152      0.0252
     32  CG1       34.1720   59.3970   28.1840 C.3   152  ILE152      0.0019
     33  CG2       32.9590   57.6740   29.7060 C.3   152  ILE152      0.0019
     34  CD1       34.9130   58.5280   27.1430 C.3   152  ILE152      0.0001
     35  N         32.1670   56.0790   34.2390 N.3   154  LYS154     -0.1245
     36  CA        31.3960   54.8600   34.0550 C.3   154  LYS154      0.1561
     37  C         31.3350   54.0460   35.3320 C.2   154  LYS154      0.2260
     38  O         32.3080   53.9780   36.0740 O.2   154  LYS154     -0.2867
     39  CB        31.9090   53.9240   32.9470 C.3   154  LYS154      0.0271
     40  CG        32.8280   54.5580   31.9120 C.3   154  LYS154      0.0035
     41  CD        33.5690   53.5060   31.0780 C.3   154  LYS154      0.0206
     42  CE        34.2220   54.0990   29.8300 C.3   154  LYS154      0.1093
     43  NZ        35.1940   53.2030   29.1740 N.3   154  LYS154     -0.1314
     44  N         29.0870   47.4830   34.6200 N.3   158  SER158     -0.1202
     45  CA        28.1920   47.8730   33.5250 C.3   158  SER158      0.2020
     46  C         28.5680   47.3850   32.1200 C.2   158  SER158      0.2619
     47  O         29.6560   46.8540   31.8850 O.2   158  SER158     -0.2717
     48  CB        28.1130   49.3970   33.4470 C.3   158  SER158      0.2103
     49  OG        29.3770   49.9550   33.0940 O.3   158  SER158     -0.2182
     50  N         27.6350   47.6090   31.1820 N.am  159  SER159     -0.1937
     51  CA        27.7800   47.2390   29.7840 C.3   159  SER159      0.2055
     52  C         26.8610   48.0300   28.8700 C.2   159  SER159      0.2644
     53  O         25.9730   48.7600   29.3130 O.2   159  SER159     -0.2714
     54  CB        27.5180   45.7600   29.5570 C.3   159  SER159      0.2130
     55  OG        26.2790   45.5970   28.8920 O.3   159  SER159     -0.2179
     56  N         27.0890   47.8580   27.5810 N.am  160  SER160     -0.1935
     57  CA        26.2690   48.5640   26.6340 C.3   160  SER160      0.2055
     58  C         25.9880   50.0430   26.9720 C.2   160  SER160      0.2643
     59  O         24.8800   50.5640   26.8840 O.2   160  SER160     -0.2714
     60  CB        25.1240   47.7010   26.0810 C.3   160  SER160      0.2130
     61  OG        25.6200   46.5170   25.4550 O.3   160  SER160     -0.2179
     62  N         27.0610   50.7130   27.4540 N.am  161  GLY161     -0.1954
     63  CA        27.1110   52.1200   27.8360 C.3   161  GLY161      0.1869
     64  C         26.0370   52.6500   28.7820 C.2   161  GLY161      0.2309
     65  O         25.5520   53.7770   28.6450 O.2   161  GLY161     -0.2863
     66  N         26.8570   55.9670   31.8360 N.3   164  GLN164     -0.1245
     67  CA        28.0560   56.6650   31.4350 C.3   164  GLN164      0.1566
     68  C         27.7920   58.0750   30.9330 C.2   164  GLN164      0.2260
     69  O         26.7880   58.3770   30.2960 O.2   164  GLN164     -0.2867
     70  CB        28.6790   55.9120   30.2680 C.3   164  GLN164      0.0367
     71  CG        29.0990   54.4960   30.6640 C.3   164  GLN164      0.0905
     72  CD        29.9000   53.8460   29.5580 C.2   164  GLN164      0.2608
     73  OE1       30.4840   54.5260   28.6680 O.2   164  GLN164     -0.2717
     74  NE2       29.9170   52.5190   29.6540 N.am  164  GLN164     -0.0878
     75  N         29.7310   61.5280   29.0640 N.3   166  PHE166     -0.1241
     76  CA        30.9020   62.0980   28.4720 C.3   166  PHE166      0.1605
     77  C         30.9620   63.4920   29.0750 C.2   166  PHE166      0.2264
     78  O         30.1630   64.3650   28.7470 O.2   166  PHE166     -0.2867
     79  CB        30.7040   62.1180   26.9670 C.3   166  PHE166      0.0534
     80  CG        31.9550   62.5450   26.2690 C.ar  166  PHE166     -0.0203
     81  CD1       32.2590   63.9000   26.1730 C.ar  166  PHE166     -0.0042
     82  CD2       32.8230   61.5980   25.7290 C.ar  166  PHE166     -0.0042
     83  CE1       33.4160   64.3230   25.5240 C.ar  166  PHE166     -0.0003
     84  CE2       33.9830   62.0050   25.0730 C.ar  166  PHE166     -0.0003
     85  CZ        34.2780   63.3640   24.9880 C.ar  166  PHE166     -0.0000
     86  N         37.7650   57.9680   33.1890 N.3   192  GLU192     -0.1231
     87  CA        38.8330   57.8050   32.2110 C.3   192  GLU192      0.1699
     88  C         39.1270   59.0280   31.3550 C.2   192  GLU192      0.2593
     89  O         38.2560   59.7910   30.9520 O.2   192  GLU192     -0.2718
     90  CB        38.4680   56.6820   31.1910 C.3   192  GLU192      0.0402
     91  CG        38.3630   55.2280   31.7170 C.3   192  GLU192      0.1161
     92  CD        37.8590   54.2420   30.6500 C.2   192  GLU192      0.3649
     93  OE1       38.0100   54.3960   29.4400 O.co2 192  GLU192     -0.2457
     94  OE2       37.2530   53.1850   31.1510 O.co2 192  GLU192     -0.2457
     95  N         40.3810   59.2300   31.0150 N.am  193  GLY193     -0.1942
     96  CA        40.6940   60.3380   30.1350 C.3   193  GLY193      0.2014
     97  C         40.1710   59.9600   28.7430 C.2   193  GLY193      0.2639
     98  O         40.1120   58.7840   28.3970 O.2   193  GLY193     -0.2714
     99  N         39.7850   60.9460   27.9360 N.am  194  VAL194     -0.1963
    100  CA        39.2720   60.6970   26.5960 C.3   194  VAL194      0.1727
    101  C         40.3580   60.4020   25.5640 C.2   194  VAL194      0.2616
    102  O         41.2210   61.2080   25.3420 O.2   194  VAL194     -0.2715
    103  CB        38.3560   61.8070   26.1220 C.3   194  VAL194      0.0290
    104  CG1       38.1290   61.5490   24.6330 C.3   194  VAL194      0.0023
    105  CG2       37.0220   61.7130   26.8680 C.3   194  VAL194      0.0023
    106  N         40.3330   59.2330   24.9160 N.am  195  VAL195     -0.1977
    107  CA        41.3290   58.9020   23.9130 C.3   195  VAL195      0.1596
    108  C         40.8340   59.4110   22.5610 C.2   195  VAL195      0.2287
    109  O         39.6870   59.1510   22.1580 O.2   195  VAL195     -0.2864
    110  CB        41.4870   57.3800   23.8320 C.3   195  VAL195      0.0276
    111  CG1       42.5490   56.9560   22.8200 C.3   195  VAL195      0.0022
    112  CG2       41.7220   56.7730   25.2040 C.3   195  VAL195      0.0022
    113  N         41.0380   58.6890   19.1070 N.3   197  PHE197     -0.1241
    114  CA        41.4610   57.6900   18.1520 C.3   197  PHE197      0.1605
    115  C         40.9070   57.9820   16.7700 C.2   197  PHE197      0.2264
    116  O         39.9150   58.7040   16.5840 O.2   197  PHE197     -0.2867
    117  CB        40.9580   56.3250   18.6430 C.3   197  PHE197      0.0534
    118  CG        39.4650   56.2560   18.9020 C.ar  197  PHE197     -0.0203
    119  CD1       38.9490   56.4560   20.1850 C.ar  197  PHE197     -0.0042
    120  CD2       38.5500   55.9460   17.8970 C.ar  197  PHE197     -0.0042
    121  CE1       37.5840   56.3580   20.4700 C.ar  197  PHE197     -0.0003
    122  CE2       37.1800   55.8680   18.1500 C.ar  197  PHE197     -0.0003
    123  CZ        36.6860   56.0730   19.4400 C.ar  197  PHE197     -0.0000
    124  N         38.0190   52.7500   16.2290 N.3   200  GLU200     -0.1245
    125  CA        38.0800   51.6760   17.2050 C.3   200  GLU200      0.1567
    126  C         37.8160   50.3300   16.5170 C.2   200  GLU200      0.2260
    127  O         37.1420   50.2330   15.4650 O.2   200  GLU200     -0.2867
    128  CB        37.2830   51.9080   18.4930 C.3   200  GLU200      0.0388
    129  CG        35.7700   52.0080   18.3060 C.3   200  GLU200      0.1160
    130  CD        35.0750   52.2190   19.6330 C.2   200  GLU200      0.3649
    131  OE1       35.3180   51.5440   20.6260 O.co2 200  GLU200     -0.2457
    132  OE2       34.1840   53.1880   19.5710 O.co2 200  GLU200     -0.2457
    133  N         33.7740   49.2680   14.1200 N.3   220  HIS220     -0.1241
    134  CA        32.3960   49.4460   14.5710 C.3   220  HIS220      0.1621
    135  C         32.0970   50.8810   14.9450 C.2   220  HIS220      0.2264
    136  O         32.9720   51.6870   15.2670 O.2   220  HIS220     -0.2867
    137  CB        32.0010   48.5230   15.7480 C.3   220  HIS220      0.0745
    138  CG        32.9870   48.5760   16.8880 C.ar  220  HIS220      0.0817
    139  ND1       32.7880   49.4020   18.0010 N.ar  220  HIS220     -0.2268
    140  CD2       34.1650   47.9100   17.0500 C.ar  220  HIS220      0.1154
    141  CE1       33.8240   49.2070   18.8150 C.ar  220  HIS220      0.1986
    142  NE2       34.6640   48.3200   18.2810 N.ar  220  HIS220     -0.2212
    143  N         29.5990   53.0860   17.4180 N.3   222  GLN222     -0.1245
    144  CA        28.8720   53.1220   18.6800 C.3   222  GLN222      0.1566
    145  C         27.9580   54.3190   18.7370 C.2   222  GLN222      0.2260
    146  O         28.3010   55.4000   18.2260 O.2   222  GLN222     -0.2867
    147  CB        29.8410   53.2030   19.8920 C.3   222  GLN222      0.0367
    148  CG        30.8550   52.0450   20.0420 C.3   222  GLN222      0.0905
    149  CD        30.2260   50.7900   20.6250 C.2   222  GLN222      0.2608
    150  OE1       30.4870   49.6620   20.1610 O.2   222  GLN222     -0.2717
    151  NE2       29.3520   50.9440   21.6250 N.am  222  GLN222     -0.0878
    152  N         25.6730   53.7360   23.9350 N.3   225  GLY225     -0.1225
    153  CA        25.8500   52.4680   24.6310 C.3   225  GLY225      0.1811
    154  C         25.7530   51.2290   23.7550 C.2   225  GLY225      0.2280
    155  O         26.1040   50.1240   24.1590 O.2   225  GLY225     -0.2866
    156  N         38.8810   44.9610   22.7120 N.3   264  GLU264     -0.1245
    157  CA        38.4880   46.3160   22.3010 C.3   264  GLU264      0.1567
    158  C         39.6970   47.2230   22.3640 C.2   264  GLU264      0.2260
    159  O         40.3130   47.3680   23.4290 O.2   264  GLU264     -0.2867
    160  CB        37.3420   46.8980   23.1710 C.3   264  GLU264      0.0388
    161  CG        36.0840   46.0040   23.1770 C.3   264  GLU264      0.1160
    162  CD        34.9110   46.6810   23.8670 C.2   264  GLU264      0.3649
    163  OE1       33.7990   46.1960   23.9760 O.co2 264  GLU264     -0.2457
    164  OE2       35.1880   47.8540   24.3780 O.co2 264  GLU264     -0.2457
    165  N         41.5850   50.9870   20.5280 N.3   266  PHE266     -0.1241
    166  CA        41.4930   52.3160   19.9160 C.3   266  PHE266      0.1605
    167  C         42.7490   52.4370   19.0870 C.2   266  PHE266      0.2264
    168  O         43.8480   52.1430   19.5750 O.2   266  PHE266     -0.2867
    169  CB        41.5520   53.4280   20.9640 C.3   266  PHE266      0.0534
    170  CG        40.3490   53.4300   21.8750 C.ar  266  PHE266     -0.0203
    171  CD1       39.0700   53.1440   21.3930 C.ar  266  PHE266     -0.0042
    172  CD2       40.4920   53.7300   23.2270 C.ar  266  PHE266     -0.0042
    173  CE1       37.9530   53.1590   22.2290 C.ar  266  PHE266     -0.0003
    174  CE2       39.3800   53.7520   24.0720 C.ar  266  PHE266     -0.0003
    175  CZ        38.1050   53.4630   23.5830 C.ar  266  PHE266     -0.0000
    176  N         41.3660   49.0930   25.5410 N.3   275  SER275     -0.1202
    177  CA        40.1750   49.6190   26.1910 C.3   275  SER275      0.2020
    178  C         39.6090   48.6100   27.1740 C.2   275  SER275      0.2618
    179  O         39.5820   48.8620   28.3760 O.2   275  SER275     -0.2717
    180  CB        39.0970   50.0720   25.2070 C.3   275  SER275      0.2103
    181  OG        37.9580   50.5660   25.9130 O.3   275  SER275     -0.2182
    182  N         39.1610   47.4590   26.6630 N.am  276  GLU276     -0.1979
    183  CA        38.6000   46.4170   27.4920 C.3   276  GLU276      0.1602
    184  C         38.5790   45.1130   26.7000 C.2   276  GLU276      0.2287
    185  O         39.0040   45.0840   25.5470 O.2   276  GLU276     -0.2864
    186  CB        37.2150   46.8030   28.0800 C.3   276  GLU276      0.0415
    187  CG        36.1080   46.9690   27.0130 C.3   276  GLU276      0.1163
    188  CD        34.6990   47.0620   27.5710 C.2   276  GLU276      0.3649
    189  OE1       33.6870   47.0530   26.8840 O.co2 276  GLU276     -0.2457
    190  OE2       34.6600   47.1380   28.8870 O.co2 276  GLU276     -0.2457
    191  N         31.8510   38.6360   21.1960 N.3   282  HIS282     -0.1226
    192  CA        31.4690   40.0470   21.2340 C.3   282  HIS282      0.1752
    193  C         30.3570   40.4070   20.2310 C.2   282  HIS282      0.2596
    194  O         30.3580   39.9020   19.0920 O.2   282  HIS282     -0.2718
    195  CB        32.7930   40.7990   20.9170 C.3   282  HIS282      0.0759
    196  CG        32.7440   42.2370   21.2950 C.ar  282  HIS282      0.0818
    197  ND1       32.2140   43.2090   20.4570 N.ar  282  HIS282     -0.2268
    198  CD2       33.1560   42.8430   22.4460 C.ar  282  HIS282      0.1154
    199  CE1       32.3130   44.3640   21.1180 C.ar  282  HIS282      0.1986
    200  NE2       32.8740   44.1760   22.3140 N.ar  282  HIS282     -0.2212
    201  N         29.4130   41.2590   20.6330 N.am  283  ASP283     -0.1974
    202  CA        28.3250   41.6020   19.7250 C.3   283  ASP283      0.1709
    203  C         28.7900   42.1220   18.3800 C.2   283  ASP283      0.2293
    204  O         28.2340   41.7450   17.3540 O.2   283  ASP283     -0.2864
    205  CB        27.2840   42.5630   20.3190 C.3   283  ASP283      0.1436
    206  CG        27.8440   43.8560   20.8580 C.2   283  ASP283      0.3671
    207  OD1       29.0000   44.2640   20.7950 O.co2 283  ASP283     -0.2456
    208  OD2       26.8850   44.5120   21.4360 O.co2 283  ASP283     -0.2456
@<TRIPOS>BOND
     1   133   134    1
     2   134   135    1
     3   134   137    1
     4   135   136    2
     5   127   126    2
     6   137   138    1
     7   124   125    1
     8   126   125    1
     9   116   115    2
    10   115   114    1
    11   138   140   ar
    12   138   139   ar
    13   140   142   ar
    14   125   128    1
    15   204   203    2
    16   143   144    1
    17   120   122   ar
    18   120   118   ar
    19   139   141   ar
    20   122   123   ar
    21   114   117    1
    22   114   113    1
    23   146   145    2
    24   142   141   ar
    25   129   128    1
    26   129   130    1
    27   203   202    1
    28   117   118    1
    29   144   145    1
    30   144   147    1
    31   118   119   ar
    32   167   168    2
    33   167   166    1
    34   194   193    2
    35   123   121   ar
    36   132   130   ar
    37   130   131   ar
    38   202   205    1
    39   202   201    1
    40   147   148    1
    41   166   165    1
    42   166   169    1
    43   148   149    1
    44   150   149    2
    45   119   121   ar
    46   193   201   am
    47   193   192    1
    48   205   206    1
    49   197   199   ar
    50   197   196   ar
    51   149   151   am
    52   207   206   ar
    53   206   208   ar
    54   195   192    1
    55   195   196    1
    56   169   170    1
    57   199   200   ar
    58   191   192    1
    59   196   198   ar
    60   171   170   ar
    61   171   173   ar
    62   170   172   ar
    63   109   108    2
    64   173   175   ar
    65   157   158    1
    66   157   156    1
    67   157   160    1
    68   200   198   ar
    69   158   159    2
    70   108   107    1
    71   111   110    1
    72   160   161    1
    73   161   162    1
    74   172   174   ar
    75   175   174   ar
    76   154   155    2
    77   154   153    1
    78   110   107    1
    79   110   112    1
    80   162   163   ar
    81   162   164   ar
    82   107   106    1
    83   152   153    1
    84   104   103    1
    85   106   101   am
    86    85    84   ar
    87    85    83   ar
    88    84    82   ar
    89   180   181    1
    90   180   177    1
    91   102   101    2
    92    61    60    1
    93    83    81   ar
    94   176   177    1
    95   185   184    2
    96   101   100    1
    97    82    80   ar
    98    60    57    1
    99   103   100    1
   100   103   105    1
   101    81    80   ar
   102   177   178    1
   103    80    79    1
   104   100    99    1
   105    57    58    1
   106    57    56    1
   107   182   178   am
   108   182   183    1
   109   184   183    1
   110   189   188   ar
   111    59    58    2
   112    79    76    1
   113    58    62   am
   114   187   188    1
   115   187   186    1
   116    34    32    1
   117   178   179    2
   118    62    63    1
   119   183   186    1
   120   188   190   ar
   121    56    52   am
   122    63    64    1
   123    99    97   am
   124    32    31    1
   125    21    22    1
   126    98    97    2
   127    76    75    1
   128    76    77    1
   129    65    64    2
   130    73    72    2
   131    25    22    1
   132    25    26    1
   133    22    23    1
   134    97    96    1
   135    78    77    2
   136    52    53    2
   137    52    51    1
   138    55    54    1
   139    43    42    1
   140    93    92   ar
   141    54    51    1
   142    72    74   am
   143    72    71    1
   144    31    33    1
   145    31    28    1
   146    51    50    1
   147    42    41    1
   148    96    95    1
   149    23    24    2
   150    70    71    1
   151    70    67    1
   152    69    68    2
   153    92    94   ar
   154    92    91    1
   155    28    27    1
   156    28    29    1
   157    19    18    1
   158     8     7   ar
   159    68    67    1
   160    89    88    2
   161    95    88   am
   162    41    40    1
   163    50    46   am
   164    90    91    1
   165    90    87    1
   166    20    18    1
   167    88    87    1
   168    67    66    1
   169     7     6    1
   170     7     9   ar
   171     6     5    1
   172    18    17    2
   173    47    46    2
   174    40    39    1
   175    29    30    2
   176    46    45    1
   177    87    86    1
   178     1     2    1
   179    39    36    1
   180    17    16    1
   181    49    48    1
   182     5     2    1
   183     2     3    1
   184    48    45    1
   185    45    44    1
   186    16    15    1
   187    15    14    1
   188    36    35    1
   189    36    37    1
   190     3     4    2
   191    14    11    1
   192    11    10    1
   193    11    12    1
   194    37    38    2
   195    13    12    2
