@<TRIPOS>MOLECULE
tmp/1kjpA01.pdb
 117 116 0 0 0
SMALL
GASTEIGER

@<TRIPOS>ATOM
      1  N         32.8030   36.5470   65.8200 N.3   112  ASN112     -0.1225
      2  CA        32.9220   37.4490   64.6960 C.3   112  ASN112      0.1785
      3  C         31.8650   38.5460   64.7490 C.2   112  ASN112      0.2597
      4  O         30.8780   38.4430   65.4780 O.2   112  ASN112     -0.2718
      5  CB        32.7730   36.6360   63.4060 C.3   112  ASN112      0.1169
      6  CG        33.2580   37.3760   62.1870 C.2   112  ASN112      0.2627
      7  OD1       34.4220   37.7570   62.1070 O.2   112  ASN112     -0.2716
      8  ND2       32.3690   37.5730   61.2190 N.am  112  ASN112     -0.0877
      9  N         32.1100   39.6050   63.9870 N.am  113  ALA113     -0.1966
     10  CA        31.1960   40.7340   63.8610 C.3   113  ALA113      0.1728
     11  C         31.3430   41.1140   62.3970 C.2   113  ALA113      0.2616
     12  O         32.4110   40.9220   61.8200 O.2   113  ALA113     -0.2715
     13  CB        31.6350   41.8920   64.7540 C.3   113  ALA113      0.0334
     14  N         30.2870   41.6230   61.7770 N.am  114  PHE114     -0.1960
     15  CA        30.4020   42.0050   60.3780 C.3   114  PHE114      0.1771
     16  C         29.3110   42.9380   59.8980 C.2   114  PHE114      0.2619
     17  O         28.3020   43.1460   60.5730 O.2   114  PHE114     -0.2715
     18  CB        30.4210   40.7610   59.4660 C.3   114  PHE114      0.0574
     19  CG        29.1920   39.8880   59.5750 C.ar  114  PHE114     -0.0200
     20  CD1       29.0830   38.9330   60.5830 C.ar  114  PHE114     -0.0042
     21  CD2       28.1550   40.0020   58.6500 C.ar  114  PHE114     -0.0042
     22  CE1       27.9630   38.0980   60.6690 C.ar  114  PHE114     -0.0003
     23  CE2       27.0320   39.1750   58.7270 C.ar  114  PHE114     -0.0003
     24  CZ        26.9350   38.2200   59.7380 C.ar  114  PHE114     -0.0000
     25  N         29.5600   43.5250   58.7310 N.am  115  TRP115     -0.1974
     26  CA        28.6120   44.4030   58.0600 C.3   115  TRP115      0.1640
     27  C         28.1780   43.5260   56.8870 C.2   115  TRP115      0.2290
     28  O         29.0170   43.0870   56.0970 O.2   115  TRP115     -0.2864
     29  CB        29.3190   45.6720   57.5770 C.3   115  TRP115      0.0576
     30  CG        28.5360   46.4570   56.5620 C.ar  115  TRP115      0.0006
     31  CD1       28.7200   46.4580   55.2090 C.ar  115  TRP115      0.0946
     32  CD2       27.4430   47.3470   56.8200 C.ar  115  TRP115      0.0152
     33  NE1       27.8090   47.2950   54.6070 N.ar  115  TRP115     -0.2442
     34  CE2       27.0130   47.8540   55.5730 C.ar  115  TRP115      0.0810
     35  CE3       26.7840   47.7670   57.9860 C.ar  115  TRP115      0.0012
     36  CZ2       25.9520   48.7610   55.4570 C.ar  115  TRP115      0.0191
     37  CZ3       25.7280   48.6700   57.8690 C.ar  115  TRP115      0.0001
     38  CH2       25.3250   49.1540   56.6130 C.ar  115  TRP115      0.0015
     39  N         34.8580   49.9550   63.6120 N.3   142  HIS142     -0.1226
     40  CA        35.4810   49.2560   62.4910 C.3   142  HIS142      0.1752
     41  C         34.3690   48.7840   61.5520 C.2   142  HIS142      0.2595
     42  O         34.4470   48.9650   60.3370 O.2   142  HIS142     -0.2718
     43  CB        36.2810   48.0480   63.0090 C.3   142  HIS142      0.0759
     44  CG        36.8530   47.1770   61.9290 C.ar  142  HIS142      0.0818
     45  ND1       38.2020   47.1280   61.6450 N.ar  142  HIS142     -0.2268
     46  CD2       36.2600   46.2980   61.0860 C.ar  142  HIS142      0.1154
     47  CE1       38.4150   46.2550   60.6750 C.ar  142  HIS142      0.1986
     48  NE2       37.2520   45.7380   60.3180 N.ar  142  HIS142     -0.2212
     49  N         33.3210   48.1960   62.1220 N.am  143  GLU143     -0.1979
     50  CA        32.2190   47.6940   61.3080 C.3   143  GLU143      0.1602
     51  C         31.4120   48.7900   60.6220 C.2   143  GLU143      0.2287
     52  O         31.0620   48.6560   59.4480 O.2   143  GLU143     -0.2864
     53  CB        31.2810   46.8230   62.1470 C.3   143  GLU143      0.0415
     54  CG        31.9270   45.5680   62.7390 C.3   143  GLU143      0.1163
     55  CD        32.6330   44.7050   61.7030 C.2   143  GLU143      0.3649
     56  OE1       32.2590   44.7590   60.5150 O.co2 143  GLU143     -0.2457
     57  OE2       33.5610   43.9560   62.0820 O.co2 143  GLU143     -0.2457
     58  N         33.0370   50.0950   57.5610 N.3   146  HIS146     -0.1241
     59  CA        32.9520   49.2760   56.3520 C.3   146  HIS146      0.1621
     60  C         31.7810   49.8120   55.5270 C.2   146  HIS146      0.2264
     61  O         31.8400   49.8360   54.3030 O.2   146  HIS146     -0.2867
     62  CB        32.7080   47.7970   56.6790 C.3   146  HIS146      0.0745
     63  CG        33.9610   47.0070   56.9050 C.ar  146  HIS146      0.0817
     64  ND1       35.0040   46.9950   56.0040 N.ar  146  HIS146     -0.2268
     65  CD2       34.3260   46.1790   57.9130 C.ar  146  HIS146      0.1154
     66  CE1       35.9580   46.1940   56.4450 C.ar  146  HIS146      0.1986
     67  NE2       35.5720   45.6860   57.6020 N.ar  146  HIS146     -0.2212
     68  N         36.7330   43.9100   48.2770 N.3   157  TYR157     -0.1241
     69  CA        37.2920   43.1560   49.3970 C.3   157  TYR157      0.1605
     70  C         38.1990   41.9980   49.0050 C.2   157  TYR157      0.2264
     71  O         37.9350   40.8380   49.3390 O.2   157  TYR157     -0.2867
     72  CB        36.1530   42.6430   50.2750 C.3   157  TYR157      0.0534
     73  CG        36.5240   42.5120   51.7300 C.ar  157  TYR157     -0.0201
     74  CD1       36.9540   43.6210   52.4590 C.ar  157  TYR157     -0.0009
     75  CD2       36.4140   41.2890   52.3900 C.ar  157  TYR157     -0.0009
     76  CE1       37.2620   43.5160   53.8120 C.ar  157  TYR157      0.0417
     77  CE2       36.7190   41.1740   53.7410 C.ar  157  TYR157      0.0417
     78  CZ        37.1400   42.2900   54.4450 C.ar  157  TYR157      0.1957
     79  OH        37.4220   42.1810   55.7840 O.3   157  TYR157     -0.2866
     80  N         40.2930   47.1750   54.8800 N.3   166  GLU166     -0.1245
     81  CA        40.4950   46.7690   56.2670 C.3   166  GLU166      0.1567
     82  C         41.2250   47.8260   57.0880 C.2   166  GLU166      0.2260
     83  O         40.8100   48.1530   58.2010 O.2   166  GLU166     -0.2867
     84  CB        41.2730   45.4500   56.3250 C.3   166  GLU166      0.0388
     85  CG        40.3740   44.2350   56.3570 C.3   166  GLU166      0.1160
     86  CD        39.3980   44.3070   57.5110 C.2   166  GLU166      0.3649
     87  OE1       39.8500   44.2930   58.6750 O.co2 166  GLU166     -0.2457
     88  OE2       38.1830   44.3940   57.2530 O.co2 166  GLU166     -0.2457
     89  N         44.9920   42.7530   66.6990 N.3   203  ARG203     -0.1245
     90  CA        45.9430   43.3940   65.7980 C.3   203  ARG203      0.1563
     91  C         46.5530   44.6000   66.4870 C.2   203  ARG203      0.2260
     92  O         45.9710   45.1520   67.4160 O.2   203  ARG203     -0.2867
     93  CB        45.2530   43.8900   64.5230 C.3   203  ARG203      0.0307
     94  CG        44.8310   42.8180   63.5500 C.3   203  ARG203      0.0489
     95  CD        44.3740   43.4520   62.2430 C.3   203  ARG203      0.2205
     96  NE        43.1080   44.1750   62.3650 N.pl3 203  ARG203     -0.0865
     97  CZ        41.9190   43.5850   62.4370 C.cat 203  ARG203      0.5346
     98  NH1       41.8320   42.2600   62.4060 N.pl3 203  ARG203      0.1354
     99  NH2       40.8130   44.3170   62.5000 N.pl3 203  ARG203      0.1354
    100  N         40.9710   36.0950   51.4750 N.3   227  ASN227     -0.1240
    101  CA        40.7200   36.9580   50.3200 C.3   227  ASN227      0.1653
    102  C         41.9830   37.6760   49.8540 C.2   227  ASN227      0.2266
    103  O         41.9370   38.8300   49.4220 O.2   227  ASN227     -0.2867
    104  CB        39.6340   37.9900   50.6470 C.3   227  ASN227      0.1155
    105  CG        38.2590   37.3660   50.7690 C.2   227  ASN227      0.2627
    106  OD1       37.7970   36.6820   49.8570 O.2   227  ASN227     -0.2716
    107  ND2       37.5960   37.6020   51.8950 N.am  227  ASN227     -0.0877
    108  N         43.2010   40.9010   56.0300 N.3   231  HIS231     -0.1241
    109  CA        43.3830   41.2010   57.4520 C.3   231  HIS231      0.1621
    110  C         44.8450   41.0770   57.8550 C.2   231  HIS231      0.2264
    111  O         45.2050   41.3290   59.0050 O.2   231  HIS231     -0.2867
    112  CB        42.5540   40.2580   58.3320 C.3   231  HIS231      0.0745
    113  CG        41.0770   40.3940   58.1440 C.ar  231  HIS231      0.0817
    114  ND1       40.3610   39.6060   57.2690 N.ar  231  HIS231     -0.2268
    115  CD2       40.1830   41.2480   58.6990 C.ar  231  HIS231      0.1154
    116  CE1       39.0900   39.9690   57.2920 C.ar  231  HIS231      0.1986
    117  NE2       38.9560   40.9630   58.1510 N.ar  231  HIS231     -0.2212
@<TRIPOS>BOND
     1    68    69    1
     2    70    71    2
     3    70    69    1
     4    69    72    1
     5   103   102    2
     6   102   101    1
     7   106   105    2
     8    72    73    1
     9   101   104    1
    10   101   100    1
    11   104   105    1
    12   105   107   am
    13    73    75   ar
    14    73    74   ar
    15    75    77   ar
    16    74    76   ar
    17    77    78   ar
    18    76    78   ar
    19    61    60    2
    20    78    79    1
    21    33    31   ar
    22    33    34   ar
    23    80    81    1
    24    31    30   ar
    25    36    34   ar
    26    36    38   ar
    27    60    59    1
    28    34    32   ar
    29    64    66   ar
    30    64    63   ar
    31   108   109    1
    32    28    27    2
    33    81    84    1
    34    81    82    1
    35    84    85    1
    36    59    62    1
    37    59    58    1
    38    85    86    1
    39    66    67   ar
    40    30    32   ar
    41    30    29    1
    42    38    37   ar
    43    62    63    1
    44    32    35   ar
    45    27    26    1
    46    63    65   ar
    47    82    83    2
    48    88    86   ar
    49   114   116   ar
    50   114   113   ar
    51   116   117   ar
    52   109   110    1
    53   109   112    1
    54    86    87   ar
    55    29    26    1
    56    67    65   ar
    57   110   111    2
    58    37    35   ar
    59    26    25    1
    60   113   112    1
    61   113   115   ar
    62   117   115   ar
    63    21    23   ar
    64    21    19   ar
    65    23    24   ar
    66    25    16   am
    67    52    51    2
    68    18    19    1
    69    18    15    1
    70    19    20   ar
    71    24    22   ar
    72    16    15    1
    73    16    17    2
    74    48    47   ar
    75    48    46   ar
    76    42    41    2
    77    15    14    1
    78    56    55   ar
    79    20    22   ar
    80    51    50    1
    81    47    45   ar
    82    46    44   ar
    83     8     6   am
    84    50    49    1
    85    50    53    1
    86    41    49   am
    87    41    40    1
    88    45    44   ar
    89    55    57   ar
    90    55    54    1
    91    14    11   am
    92    12    11    2
    93    44    43    1
    94     7     6    2
    95    53    54    1
    96     6     5    1
    97    95    96    1
    98    95    94    1
    99    96    97    2
   100    11    10    1
   101    98    97    1
   102    97    99    1
   103    40    43    1
   104    40    39    1
   105     5     2    1
   106    94    93    1
   107    10     9    1
   108    10    13    1
   109     9     3   am
   110    93    90    1
   111     2     3    1
   112     2     1    1
   113     3     4    2
   114    90    91    1
   115    90    89    1
   116    91    92    2
