@<TRIPOS>MOLECULE
tmp/1kjqA00.pdb
 178 166 0 0 0
SMALL
GASTEIGER

@<TRIPOS>ATOM
      1  N          2.1120   39.0900    5.4610 N.3    83  GLU83      -0.1245
      2  CA         1.3270   39.3820    4.2680 C.3    83  GLU83       0.1567
      3  C          2.0460   39.1090    2.9780 C.2    83  GLU83       0.2260
      4  O          1.3990   38.8730    1.9590 O.2    83  GLU83      -0.2867
      5  CB         0.9410   40.8700    4.2620 C.3    83  GLU83       0.0388
      6  CG        -0.1020   41.0820    5.3620 C.3    83  GLU83       0.1160
      7  CD        -0.2920   42.5160    5.7590 C.2    83  GLU83       0.3649
      8  OE1        0.1890   43.4840    5.1730 O.co2  83  GLU83      -0.2457
      9  OE2       -1.0570   42.5850    6.8080 O.co2  83  GLU83      -0.2457
     10  N         -4.9640   46.2580    2.0190 N.3   113  ARG113     -0.1245
     11  CA        -5.8900   47.1020    2.7850 C.3   113  ARG113      0.1563
     12  C         -7.2040   47.3180    2.0960 C.2   113  ARG113      0.2260
     13  O         -8.2280   47.4760    2.7930 O.2   113  ARG113     -0.2867
     14  CB        -5.3490   48.4600    3.1650 C.3   113  ARG113      0.0307
     15  CG        -4.1800   48.3860    4.1500 C.3   113  ARG113      0.0489
     16  CD        -3.7210   49.7480    4.5880 C.3   113  ARG113      0.2205
     17  NE        -2.5060   49.5690    5.3420 N.pl3 113  ARG113     -0.0865
     18  CZ        -2.4890   49.2270    6.6300 C.cat 113  ARG113      0.5346
     19  NH1       -3.5830   49.0390    7.3330 N.pl3 113  ARG113      0.1354
     20  NH2       -1.3340   49.0580    7.2340 N.pl3 113  ARG113      0.1354
     21  N        -13.4640   54.0610    9.8260 N.3   129  SER129     -0.1217
     22  CA       -13.1600   55.4440    9.5190 C.3   129  SER129      0.1889
     23  C        -13.5790   55.6870    8.0230 C.2   129  SER129      0.2288
     24  O        -13.7750   54.7680    7.2310 O.2   129  SER129     -0.2866
     25  CB       -11.6400   55.6410    9.5160 C.3   129  SER129      0.2089
     26  OG       -10.9950   54.8980    8.4790 O.3   129  SER129     -0.2183
     27  N         -4.9010   60.0390    7.4160 N.3   152  ILE152     -0.1245
     28  CA        -3.7010   59.2100    7.4270 C.3   152  ILE152      0.1561
     29  C         -3.6250   58.4790    6.0810 C.2   152  ILE152      0.2260
     30  O         -4.6500   57.9340    5.6200 O.2   152  ILE152     -0.2867
     31  CB        -3.7550   58.1780    8.5980 C.3   152  ILE152      0.0252
     32  CG1       -3.6630   58.8710    9.9540 C.3   152  ILE152      0.0019
     33  CG2       -2.6360   57.1230    8.4550 C.3   152  ILE152      0.0019
     34  CD1       -4.2630   57.9990   11.0590 C.3   152  ILE152      0.0001
     35  N         -1.7910   55.3520    3.8700 N.3   154  LYS154     -0.1245
     36  CA        -1.0350   54.1170    4.0360 C.3   154  LYS154      0.1561
     37  C         -1.0200   53.3530    2.7190 C.2   154  LYS154      0.2260
     38  O         -2.0020   53.3540    2.0060 O.2   154  LYS154     -0.2867
     39  CB        -1.6580   53.1760    5.1140 C.3   154  LYS154      0.0271
     40  CG        -2.3400   53.8660    6.3010 C.3   154  LYS154      0.0035
     41  CD        -3.1550   52.8750    7.1510 C.3   154  LYS154      0.0206
     42  CE        -3.9530   53.5750    8.2560 C.3   154  LYS154      0.1093
     43  NZ        -5.0470   52.7750    8.8910 N.3   154  LYS154     -0.1314
     44  N          3.4300   54.9490    6.1630 N.3   161  GLN161     -0.1245
     45  CA         2.2730   55.6450    6.6940 C.3   161  GLN161      0.1566
     46  C          2.5680   57.0590    7.1630 C.2   161  GLN161      0.2260
     47  O          3.6160   57.3280    7.7320 O.2   161  GLN161     -0.2867
     48  CB         1.5900   54.8060    7.8090 C.3   161  GLN161      0.0367
     49  CG         0.5760   55.5290    8.7550 C.3   161  GLN161      0.0905
     50  CD        -0.2110   54.5560    9.6750 C.2   161  GLN161      0.2608
     51  OE1       -0.9610   54.9330   10.6470 O.2   161  GLN161     -0.2717
     52  NE2       -0.0360   53.2660    9.3670 N.am  161  GLN161     -0.0878
     53  N          0.6990   60.6910    9.0240 N.3   163  PHE163     -0.1241
     54  CA        -0.4070   61.3770    9.6450 C.3   163  PHE163      0.1605
     55  C         -0.3420   62.7430    9.0260 C.2   163  PHE163      0.2264
     56  O          0.5780   63.5020    9.2820 O.2   163  PHE163     -0.2867
     57  CB        -0.2680   61.4500   11.2030 C.3   163  PHE163      0.0534
     58  CG        -1.4440   62.1290   11.9280 C.ar  163  PHE163     -0.0203
     59  CD1       -1.6570   63.5080   11.9920 C.ar  163  PHE163     -0.0042
     60  CD2       -2.3660   61.2780   12.5510 C.ar  163  PHE163     -0.0042
     61  CE1       -2.7580   64.0380   12.6750 C.ar  163  PHE163     -0.0003
     62  CE2       -3.4660   61.7970   13.2350 C.ar  163  PHE163     -0.0003
     63  CZ        -3.6700   63.1780   13.2900 C.ar  163  PHE163     -0.0000
     64  N         -7.3570   57.6890    5.0220 N.3   191  GLU191     -0.1231
     65  CA        -8.4270   57.5440    6.0020 C.3   191  GLU191      0.1699
     66  C         -8.6520   58.7690    6.8460 C.2   191  GLU191      0.2593
     67  O         -7.6820   59.4570    7.2490 O.2   191  GLU191     -0.2718
     68  CB        -8.0720   56.4010    7.0200 C.3   191  GLU191      0.0402
     69  CG        -8.0130   55.0110    6.3930 C.3   191  GLU191      0.1161
     70  CD        -7.5380   53.9960    7.4120 C.2   191  GLU191      0.3649
     71  OE1       -7.7670   54.1200    8.6040 O.co2 191  GLU191     -0.2457
     72  OE2       -6.8990   52.9950    6.8810 O.co2 191  GLU191     -0.2457
     73  N         -9.9310   59.0300    7.1740 N.am  192  GLY192     -0.1942
     74  CA       -10.2540   60.1260    8.0850 C.3   192  GLY192      0.2014
     75  C         -9.7560   59.6970    9.4920 C.2   192  GLY192      0.2639
     76  O         -9.8190   58.5360    9.8530 O.2   192  GLY192     -0.2714
     77  N         -9.2230   60.6200   10.2520 N.am  193  VAL193     -0.1963
     78  CA        -8.7070   60.2780   11.5970 C.3   193  VAL193      0.1727
     79  C         -9.8170   60.1000   12.6250 C.2   193  VAL193      0.2616
     80  O        -10.6300   61.0170   12.8240 O.2   193  VAL193     -0.2715
     81  CB        -7.7360   61.3480   12.0800 C.3   193  VAL193      0.0290
     82  CG1       -7.4170   61.1790   13.5830 C.3   193  VAL193      0.0023
     83  CG2       -6.4520   61.2200   11.2690 C.3   193  VAL193      0.0023
     84  N         -9.8600   58.9150   13.2570 N.am  194  VAL194     -0.1977
     85  CA       -10.8430   58.6300   14.3060 C.3   194  VAL194      0.1596
     86  C        -10.2310   59.1250   15.6150 C.2   194  VAL194      0.2287
     87  O         -9.1500   58.6850   15.9930 O.2   194  VAL194     -0.2864
     88  CB       -11.1140   57.1350   14.4090 C.3   194  VAL194      0.0276
     89  CG1      -12.0800   56.8630   15.5620 C.3   194  VAL194      0.0022
     90  CG2      -11.6840   56.6040   13.0910 C.3   194  VAL194      0.0022
     91  N        -10.2190   58.5360   18.8480 N.3   196  PHE196     -0.1241
     92  CA       -10.6660   57.5480   19.8110 C.3   196  PHE196      0.1605
     93  C        -10.1260   57.8110   21.2020 C.2   196  PHE196      0.2264
     94  O         -9.1320   58.4770   21.4390 O.2   196  PHE196     -0.2867
     95  CB       -10.2840   56.1480   19.3150 C.3   196  PHE196      0.0534
     96  CG        -8.8130   55.9470   18.9940 C.ar  196  PHE196     -0.0203
     97  CD1       -8.3950   55.8620   17.6560 C.ar  196  PHE196     -0.0042
     98  CD2       -7.8520   55.8200   19.9960 C.ar  196  PHE196     -0.0042
     99  CE1       -7.0490   55.6490   17.3580 C.ar  196  PHE196     -0.0003
    100  CE2       -6.5030   55.6130   19.7140 C.ar  196  PHE196     -0.0003
    101  CZ        -6.1050   55.5140   18.3770 C.ar  196  PHE196     -0.0000
    102  N         -7.4640   52.4480   21.8780 N.3   199  GLU199     -0.1245
    103  CA        -7.6100   51.4140   20.8300 C.3   199  GLU199      0.1567
    104  C         -7.3090   50.0460   21.4600 C.2   199  GLU199      0.2260
    105  O         -6.5430   49.9410   22.4400 O.2   199  GLU199     -0.2867
    106  CB        -6.7530   51.6940   19.6110 C.3   199  GLU199      0.0388
    107  CG        -5.2500   51.8480   19.8700 C.3   199  GLU199      0.1160
    108  CD        -4.5290   52.0130   18.5520 C.2   199  GLU199      0.3649
    109  OE1       -4.8570   51.3990   17.5250 O.co2 199  GLU199     -0.2457
    110  OE2       -3.5650   52.9010   18.5680 O.co2 199  GLU199     -0.2457
    111  N         -3.7400   48.9330   23.6130 N.3   219  HIS219     -0.1241
    112  CA        -2.3780   49.1260   23.1810 C.3   219  HIS219      0.1621
    113  C         -2.1060   50.5840   22.8090 C.2   219  HIS219      0.2264
    114  O         -3.0570   51.3210   22.4800 O.2   219  HIS219     -0.2867
    115  CB        -1.9520   48.1730   22.0500 C.3   219  HIS219      0.0745
    116  CG        -2.8310   48.2010   20.8280 C.ar  219  HIS219      0.0817
    117  ND1       -2.4740   48.8800   19.6690 N.ar  219  HIS219     -0.2268
    118  CD2       -4.0370   47.6010   20.6030 C.ar  219  HIS219      0.1154
    119  CE1       -3.4770   48.6780   18.7940 C.ar  219  HIS219      0.1986
    120  NE2       -4.4120   47.8960   19.3250 N.ar  219  HIS219     -0.2212
    121  N          0.3340   52.8550   20.2110 N.3   221  GLN221     -0.1245
    122  CA         1.2010   52.8160   19.0240 C.3   221  GLN221      0.1566
    123  C          1.9910   54.1060   18.9070 C.2   221  GLN221      0.2260
    124  O          1.5110   55.1730   19.2970 O.2   221  GLN221     -0.2867
    125  CB         0.3240   52.7520   17.7530 C.3   221  GLN221      0.0367
    126  CG        -0.6010   51.5250   17.7220 C.3   221  GLN221      0.0905
    127  CD         0.0570   50.2610   17.1900 C.2   221  GLN221      0.2608
    128  OE1       -0.2280   49.1210   17.6790 O.2   221  GLN221     -0.2717
    129  NE2        0.9310   50.3960   16.2130 N.am  221  GLN221     -0.0878
    130  N          4.7240   53.8160   14.0530 N.3   224  GLY224     -0.1225
    131  CA         4.5890   52.5300   13.3790 C.3   224  GLY224      0.1811
    132  C          4.7450   51.2670   14.2330 C.2   224  GLY224      0.2280
    133  O          4.5440   50.1700   13.7020 O.2   224  GLY224     -0.2866
    134  N         -8.4340   44.6340   15.3500 N.3   263  GLU263     -0.1245
    135  CA        -8.0540   45.9560   15.8320 C.3   263  GLU263      0.1567
    136  C         -9.2440   46.9040   15.7330 C.2   263  GLU263      0.2260
    137  O         -9.8500   47.0420   14.6560 O.2   263  GLU263     -0.2867
    138  CB        -6.8860   46.5120   15.0110 C.3   263  GLU263      0.0388
    139  CG        -5.5520   45.8660   15.5010 C.3   263  GLU263      0.1160
    140  CD        -4.3180   46.7050   15.1570 C.2   263  GLU263      0.3649
    141  OE1       -3.4970   47.0790   15.9870 O.co2 263  GLU263     -0.2457
    142  OE2       -4.2130   47.0180   13.8590 O.co2 263  GLU263     -0.2457
    143  N        -11.1440   50.7000   17.3850 N.3   265  PHE265     -0.1241
    144  CA       -11.0170   52.0160   18.0310 C.3   265  PHE265      0.1605
    145  C        -12.2530   52.2070   18.9180 C.2   265  PHE265      0.2264
    146  O        -13.3820   51.9020   18.4850 O.2   265  PHE265     -0.2867
    147  CB       -10.9980   53.1620   17.0330 C.3   265  PHE265      0.0534
    148  CG        -9.8560   53.0360   16.0440 C.ar  265  PHE265     -0.0203
    149  CD1       -8.5970   52.5290   16.3680 C.ar  265  PHE265     -0.0042
    150  CD2      -10.0370   53.5300   14.7500 C.ar  265  PHE265     -0.0042
    151  CE1       -7.5570   52.4700   15.4410 C.ar  265  PHE265     -0.0003
    152  CE2       -9.0060   53.4960   13.8100 C.ar  265  PHE265     -0.0003
    153  CZ        -7.7650   52.9720   14.1540 C.ar  265  PHE265     -0.0000
    154  N        -10.9700   48.7810   12.6120 N.3   274  SER274     -0.1202
    155  CA        -9.8100   49.2830   11.9070 C.3   274  SER274      0.2020
    156  C         -9.2180   48.2570   10.9630 C.2   274  SER274      0.2618
    157  O         -9.1450   48.4940    9.7600 O.2   274  SER274     -0.2717
    158  CB        -8.7590   49.7520   12.8900 C.3   274  SER274      0.2103
    159  OG        -7.6450   50.2410   12.1440 O.3   274  SER274     -0.2182
    160  N         -8.7890   47.1010   11.4560 N.am  275  GLU275     -0.1979
    161  CA        -8.2090   46.0640   10.5870 C.3   275  GLU275      0.1602
    162  C         -8.1700   44.7570   11.3770 C.2   275  GLU275      0.2287
    163  O         -8.5550   44.7120   12.5560 O.2   275  GLU275     -0.2864
    164  CB        -6.8080   46.4470   10.0620 C.3   275  GLU275      0.0415
    165  CG        -5.7720   46.6190   11.1770 C.3   275  GLU275      0.1163
    166  CD        -4.3680   46.7520   10.6480 C.2   275  GLU275      0.3649
    167  OE1       -3.3880   46.7630   11.3870 O.co2 275  GLU275     -0.2457
    168  OE2       -4.3100   46.7940    9.3370 O.co2 275  GLU275     -0.2457
    169  N         -1.4970   38.4970   16.7990 N.3   281  HIS281     -0.1241
    170  CA        -1.1090   39.8940   16.6440 C.3   281  HIS281      0.1621
    171  C         -0.0400   40.2840   17.6500 C.2   281  HIS281      0.2264
    172  O         -0.0330   39.7970   18.7990 O.2   281  HIS281     -0.2867
    173  CB        -2.3930   40.7060   16.8910 C.3   281  HIS281      0.0745
    174  CG        -2.3180   42.1340   16.4710 C.ar  281  HIS281      0.0817
    175  ND1       -2.0060   43.1680   17.3460 N.ar  281  HIS281     -0.2268
    176  CD2       -2.5170   42.6460   15.2270 C.ar  281  HIS281      0.1154
    177  CE1       -2.0040   44.2720   16.6210 C.ar  281  HIS281      0.1986
    178  NE2       -2.2910   44.0050   15.3530 N.ar  281  HIS281     -0.2212
@<TRIPOS>BOND
     1     4     3    2
     2    38    37    2
     3    10    11    1
     4    12    11    1
     5    12    13    2
     6    37    36    1
     7    11    14    1
     8     3     2    1
     9    14    15    1
    10    35    36    1
    11    36    39    1
    12    15    16    1
    13     5     2    1
    14     5     6    1
    15     2     1    1
    16    16    17    1
    17    64    65    1
    18    39    40    1
    19     8     7   ar
    20    17    18    2
    21     6     7    1
    22    30    29    2
    23     7     9   ar
    24    65    66    1
    25    65    68    1
    26    29    28    1
    27    44    45    1
    28    40    41    1
    29    69    68    1
    30    69    70    1
    31    18    20    1
    32    18    19    1
    33    45    46    1
    34    45    48    1
    35    66    73   am
    36    66    67    2
    37    72    70   ar
    38    41    42    1
    39    46    47    2
    40    73    74    1
    41    24    23    2
    42    70    71   ar
    43    27    28    1
    44    28    31    1
    45    48    49    1
    46    23    22    1
    47    74    75    1
    48    42    43    1
    49    33    31    1
    50    26    25    1
    51    31    32    1
    52    49    50    1
    53    53    54    1
    54    55    56    2
    55    55    54    1
    56   168   166   ar
    57    52    50   am
    58    75    76    2
    59    75    77   am
    60    25    22    1
    61    22    21    1
    62    54    57    1
    63    50    51    2
    64   157   156    2
    65    32    34    1
    66   164   161    1
    67   164   165    1
    68    77    78    1
    69   161   162    1
    70   161   160    1
    71   166   165    1
    72   166   167   ar
    73   156   160   am
    74   156   155    1
    75    57    58    1
    76    83    81    1
    77   162   163    2
    78    78    81    1
    79    78    79    1
    80   155   154    1
    81   155   158    1
    82    58    59   ar
    83    58    60   ar
    84    59    61   ar
    85    81    82    1
    86   159   158    1
    87    60    62   ar
    88    79    80    2
    89    79    84   am
    90    61    63   ar
    91    90    88    1
    92    62    63   ar
    93    84    85    1
    94   131   130    1
    95   131   132    1
    96   133   132    2
    97   152   153   ar
    98   152   150   ar
    99   142   140   ar
   100   153   151   ar
   101    85    88    1
   102    85    86    1
   103    88    89    1
   104   137   136    2
   105   150   148   ar
   106   138   139    1
   107   138   135    1
   108   140   139    1
   109   140   141   ar
   110   176   178   ar
   111   176   174   ar
   112   134   135    1
   113   178   177   ar
   114   151   149   ar
   115    86    87    2
   116   136   135    1
   117   148   149   ar
   118   148   147    1
   119   129   127   am
   120   174   173    1
   121   174   175   ar
   122   177   175   ar
   123   170   169    1
   124   170   173    1
   125   170   171    1
   126   147   144    1
   127   127   128    2
   128   127   126    1
   129    99    97   ar
   130    99   101   ar
   131   143   144    1
   132   109   108   ar
   133   171   172    2
   134    97    96   ar
   135   126   125    1
   136   125   122    1
   137   144   145    1
   138   101   100   ar
   139   146   145    2
   140   108   110   ar
   141   108   107    1
   142   119   120   ar
   143   119   117   ar
   144    91    92    1
   145   123   122    1
   146   123   124    2
   147    96    95    1
   148    96    98   ar
   149   122   121    1
   150    95    92    1
   151   120   118   ar
   152   106   107    1
   153   106   103    1
   154   117   116   ar
   155   100    98   ar
   156    92    93    1
   157   118   116   ar
   158   116   115    1
   159   103   104    1
   160   103   102    1
   161    93    94    2
   162   104   105    2
   163   115   112    1
   164   114   113    2
   165   113   112    1
   166   112   111    1
