@<TRIPOS>MOLECULE
tmp/1kjrA00.pdb
 117 110 0 0 0
SMALL
GASTEIGER

@<TRIPOS>ATOM
      1  N          5.8940  -12.6550   -7.0500 N.3    32  ARG32      -0.1231
      2  CA         5.4620  -11.2780   -6.7520 C.3    32  ARG32       0.1694
      3  C          6.5650  -10.2540   -6.7210 C.2    32  ARG32       0.2592
      4  O          7.7530  -10.6010   -6.6850 O.2    32  ARG32      -0.2718
      5  CB         4.6450  -11.1850   -5.4690 C.3    32  ARG32       0.0321
      6  CG         5.1940  -11.8070   -4.2730 C.3    32  ARG32       0.0489
      7  CD         4.0930  -11.8920   -3.1630 C.3    32  ARG32       0.2205
      8  NE         4.6520  -12.5590   -2.0090 N.pl3  32  ARG32      -0.0865
      9  CZ         4.1460  -12.5630   -0.7780 C.cat  32  ARG32       0.5346
     10  NH1        3.0220  -11.9260   -0.4920 N.pl3  32  ARG32       0.1354
     11  NH2        4.8070  -13.2070    0.1710 N.pl3  32  ARG32       0.1354
     12  N          6.1810   -8.9920   -6.8840 N.am   33  ILE33      -0.1966
     13  CA         7.1550   -7.8850   -6.8010 C.3    33  ILE33       0.1727
     14  C          6.4650   -6.8520   -5.9000 C.2    33  ILE33       0.2616
     15  O          5.2450   -6.7870   -5.8980 O.2    33  ILE33      -0.2715
     16  CB         7.3590   -7.2290   -8.1560 C.3    33  ILE33       0.0290
     17  CG1        7.9100   -8.2580   -9.1530 C.3    33  ILE33       0.0022
     18  CG2        8.2830   -5.9870   -8.0090 C.3    33  ILE33       0.0023
     19  CD1        7.8780   -7.7540  -10.5790 C.3    33  ILE33       0.0001
     20  N          7.1910   -6.0990   -5.0850 N.am   34  ALA34      -0.1977
     21  CA         6.5490   -5.0400   -4.3000 C.3    34  ALA34       0.1597
     22  C          7.3560   -3.7650   -4.2080 C.2    34  ALA34       0.2287
     23  O          8.5620   -3.8470   -3.9980 O.2    34  ALA34      -0.2864
     24  CB         6.2270   -5.4930   -2.8660 C.3    34  ALA34       0.0319
     25  N          7.1850   -0.3880   -1.8890 N.3    36  ASP36      -0.1239
     26  CA         6.4690    0.1500   -0.7230 C.3    36  ASP36       0.1674
     27  C          7.0180    1.5350   -0.4060 C.2    36  ASP36       0.2266
     28  O          8.1560    1.6890    0.0830 O.2    36  ASP36      -0.2867
     29  CB         6.7130   -0.7600    0.4880 C.3    36  ASP36       0.1410
     30  CG         5.9850   -2.0400    0.4080 C.2    36  ASP36       0.3668
     31  OD1        4.7600   -2.0070    0.6200 O.co2  36  ASP36      -0.2456
     32  OD2        6.6250   -3.0870    0.1500 O.co2  36  ASP36      -0.2456
     33  N          1.5940    1.0080   -1.6690 N.3    46  HIS46      -0.1241
     34  CA         2.0990   -0.3560   -1.8470 C.3    46  HIS46       0.1621
     35  C          1.6680   -0.7260   -3.2480 C.2    46  HIS46       0.2264
     36  O          0.4670   -0.6270   -3.5580 O.2    46  HIS46      -0.2867
     37  CB         1.4170   -1.2920   -0.8080 C.3    46  HIS46       0.0745
     38  CG         1.6620   -2.7600   -0.9920 C.ar   46  HIS46       0.0817
     39  ND1        2.8290   -3.4010   -0.6250 N.ar   46  HIS46      -0.2268
     40  CD2        0.8100   -3.7400   -1.3920 C.ar   46  HIS46       0.1154
     41  CE1        2.6820   -4.7080   -0.7770 C.ar   46  HIS46       0.1986
     42  NE2        1.4650   -4.9370   -1.2400 N.ar   46  HIS46      -0.2212
     43  N          1.9280   -3.8160   -5.8790 N.3    48  ASN48      -0.1240
     44  CA         2.2580   -5.2360   -5.7930 C.3    48  ASN48       0.1653
     45  C          1.8400   -6.1450   -6.9260 C.2    48  ASN48       0.2266
     46  O          0.7570   -6.7270   -6.9150 O.2    48  ASN48      -0.2867
     47  CB         1.6270   -5.7260   -4.4520 C.3    48  ASN48       0.1155
     48  CG         1.8070   -7.2290   -4.1590 C.2    48  ASN48       0.2627
     49  OD1        0.9260   -7.8560   -3.5420 O.2    48  ASN48      -0.2716
     50  ND2        2.9330   -7.8020   -4.5570 N.am   48  ASN48      -0.0877
     51  N          1.2930   -9.3420   -8.7580 N.3    50  ARG50      -0.1245
     52  CA         1.1620  -10.7490   -8.3310 C.3    50  ARG50       0.1563
     53  C          1.0700  -11.5950   -9.6080 C.2    50  ARG50       0.2260
     54  O          0.1700  -11.3840  -10.4110 O.2    50  ARG50      -0.2867
     55  CB        -0.1120  -10.9360   -7.5070 C.3    50  ARG50       0.0307
     56  CG        -0.0300  -10.1990   -6.1700 C.3    50  ARG50       0.0489
     57  CD        -1.2780  -10.3600   -5.3970 C.3    50  ARG50       0.2205
     58  NE        -1.2200   -9.4980   -4.2070 N.pl3  50  ARG50      -0.0865
     59  CZ        -2.1360   -9.5220   -3.2600 C.cat  50  ARG50       0.5346
     60  NH1       -3.1760  -10.3450   -3.3550 N.pl3  50  ARG50       0.1354
     61  NH2       -2.0230   -8.7380   -2.1940 N.pl3  50  ARG50       0.1354
     62  N         -1.9360   -5.3160   -7.3050 N.3    60  VAL60      -0.1245
     63  CA        -2.7060   -4.8770   -6.1580 C.3    60  VAL60       0.1561
     64  C         -2.0450   -3.6800   -5.5270 C.2    60  VAL60       0.2260
     65  O         -0.8430   -3.7590   -5.2310 O.2    60  VAL60      -0.2867
     66  CB        -2.7540   -5.9800   -5.1050 C.3    60  VAL60       0.0252
     67  CG1       -3.4750   -5.4720   -3.8620 C.3    60  VAL60       0.0019
     68  CG2       -3.4750   -7.2350   -5.6700 C.3    60  VAL60       0.0019
     69  N         -2.3290   -0.6100   -2.3740 N.3    62  ASN62      -0.1240
     70  CA        -3.0090   -0.3390   -1.0980 C.3    62  ASN62       0.1653
     71  C         -2.1580    0.5520   -0.2360 C.2    62  ASN62       0.2266
     72  O         -1.0680    0.9500   -0.6270 O.2    62  ASN62      -0.2867
     73  CB        -3.2860   -1.7030   -0.3640 C.3    62  ASN62       0.1155
     74  CG        -4.4940   -1.6280    0.6140 C.2    62  ASN62       0.2627
     75  OD1       -4.9770   -0.5700    0.9420 O.2    62  ASN62      -0.2716
     76  ND2       -4.9750   -2.8040    1.0440 N.am   62  ASN62      -0.0877
     77  N         -4.0280   -2.9740    6.6050 N.3    69  TRP69      -0.1241
     78  CA        -4.2300   -2.6660    5.1770 C.3    69  TRP69       0.1605
     79  C         -5.6250   -2.0760    4.9380 C.2    69  TRP69       0.2264
     80  O         -6.6030   -2.4590    5.5950 O.2    69  TRP69      -0.2867
     81  CB        -4.1030   -3.9350    4.3410 C.3    69  TRP69       0.0550
     82  CG        -2.6830   -4.4320    4.2650 C.ar   69  TRP69       0.0003
     83  CD1       -2.1930   -5.5290    4.8490 C.ar   69  TRP69       0.0946
     84  CD2       -1.6320   -3.7960    3.5490 C.ar   69  TRP69       0.0152
     85  NE1       -0.8200   -5.6210    4.5100 N.ar   69  TRP69      -0.2442
     86  CE2       -0.4980   -4.5870    3.7340 C.ar   69  TRP69       0.0810
     87  CE3       -1.5470   -2.6280    2.7600 C.ar   69  TRP69       0.0012
     88  CZ2        0.7420   -4.2760    3.1590 C.ar   69  TRP69       0.0191
     89  CZ3       -0.2970   -2.3220    2.1880 C.ar   69  TRP69       0.0001
     90  CH2        0.8000   -3.1150    2.3800 C.ar   69  TRP69       0.0015
     91  N         -8.2020   -2.4380   -1.1640 N.3    72  GLU72      -0.1245
     92  CA        -7.3290   -2.6570   -2.3110 C.3    72  GLU72       0.1567
     93  C         -7.8720   -2.0630   -3.5800 C.2    72  GLU72       0.2260
     94  O         -9.1070   -2.0000   -3.7790 O.2    72  GLU72      -0.2867
     95  CB        -7.0920   -4.1400   -2.5710 C.3    72  GLU72       0.0388
     96  CG        -6.4170   -4.8560   -1.4340 C.3    72  GLU72       0.1160
     97  CD        -6.2260   -6.3530   -1.6500 C.2    72  GLU72       0.3649
     98  OE1       -6.8780   -6.9390   -2.5500 O.co2  72  GLU72      -0.2457
     99  OE2       -5.4450   -6.9460   -0.9310 O.co2  72  GLU72      -0.2457
    100  N         11.1960   -4.9420   -3.2250 N.3   125  SER125     -0.1202
    101  CA        11.3820   -6.3380   -2.8650 C.3   125  SER125      0.2020
    102  C         10.6870   -7.2610   -3.8280 C.2   125  SER125      0.2619
    103  O          9.9800   -6.7930   -4.7260 O.2   125  SER125     -0.2717
    104  CB        10.8270   -6.6170   -1.4570 C.3   125  SER125      0.2103
    105  OG         9.4140   -6.2610   -1.3560 O.3   125  SER125     -0.2182
    106  N         10.9220   -8.5570   -3.6410 N.am  126  GLY126     -0.1942
    107  CA        10.2840   -9.5100   -4.5270 C.3   126  GLY126      0.2014
    108  C         11.2130  -10.2010   -5.5150 C.2   126  GLY126      0.2638
    109  O         12.4530  -10.1400   -5.4280 O.2   126  GLY126     -0.2714
    110  N         10.5730  -10.8590   -6.4900 N.am  127  ASP127     -0.1971
    111  CA        11.2860  -11.7080   -7.4360 C.3   127  ASP127      0.1709
    112  C         11.9030  -11.0020   -8.6050 C.2   127  ASP127      0.2293
    113  O         11.5170  -11.2130   -9.7740 O.2   127  ASP127     -0.2864
    114  CB        10.3170  -12.8220   -7.8550 C.3   127  ASP127      0.1436
    115  CG         9.7530  -13.5720   -6.6530 C.2   127  ASP127      0.3671
    116  OD1       10.5180  -13.7840   -5.6840 O.co2 127  ASP127     -0.2456
    117  OD2        8.5770  -13.9660   -6.6530 O.co2 127  ASP127     -0.2456
@<TRIPOS>BOND
     1    19    17    1
     2    54    53    2
     3   113   112    2
     4    53    52    1
     5    17    16    1
     6    51    52    1
     7   112   111    1
     8    52    55    1
     9    16    18    1
    10    16    13    1
    11   114   111    1
    12   114   115    1
    13    55    56    1
    14   111   110    1
    15    62    63    1
    16     1     2    1
    17    45    46    2
    18    45    44    1
    19    12    13    1
    20    12     3   am
    21    13    14    1
    22     2     3    1
    23     2     5    1
    24     3     4    2
    25   115   117   ar
    26   115   116   ar
    27   110   108   am
    28    56    57    1
    29    63    64    1
    30    63    66    1
    31    14    15    2
    32    14    20   am
    33    43    44    1
    34    44    47    1
    35    68    66    1
    36    64    65    2
    37   108   109    2
    38   108   107    1
    39     5     6    1
    40    57    58    1
    41    66    67    1
    42    20    21    1
    43   103   102    2
    44    50    48   am
    45   107   106    1
    46    47    48    1
    47    21    22    1
    48    21    24    1
    49     6     7    1
    50    22    23    2
    51    58    59    2
    52    48    49    2
    53   102   106   am
    54   102   101    1
    55    94    93    2
    56    93    92    1
    57    36    35    2
    58    60    59    1
    59    59    61    1
    60    35    34    1
    61   100   101    1
    62     7     8    1
    63   101   104    1
    64    95    92    1
    65    95    96    1
    66    98    97   ar
    67    69    70    1
    68    92    91    1
    69     8     9    2
    70    25    26    1
    71    34    33    1
    72    34    37    1
    73    97    96    1
    74    97    99   ar
    75   104   105    1
    76    40    42   ar
    77    40    38   ar
    78    42    41   ar
    79    70    73    1
    80    70    71    1
    81    38    37    1
    82    38    39   ar
    83     9    10    1
    84     9    11    1
    85    41    39   ar
    86    26    27    1
    87    26    29    1
    88    72    71    2
    89    27    28    2
    90    73    74    1
    91    32    30   ar
    92    30    29    1
    93    30    31   ar
    94    74    75    2
    95    74    76   am
    96    89    90   ar
    97    89    87   ar
    98    90    88   ar
    99    87    84   ar
   100    88    86   ar
   101    84    86   ar
   102    84    82   ar
   103    86    85   ar
   104    82    81    1
   105    82    83   ar
   106    81    78    1
   107    85    83   ar
   108    79    78    1
   109    79    80    2
   110    78    77    1
