@<TRIPOS>MOLECULE
tmp/1kk1A00.pdb
 141 140 0 0 0
SMALL
GASTEIGER

@<TRIPOS>ATOM
      1  N        -15.2560   -6.7410   11.5990 N.3    14  VAL14      -0.1231
      2  CA       -16.1580   -6.8040   12.7430 C.3    14  VAL14       0.1692
      3  C        -17.1190   -7.9930   12.6910 C.2    14  VAL14       0.2592
      4  O        -17.7090   -8.2960   11.6540 O.2    14  VAL14      -0.2718
      5  CB       -16.9670   -5.4790   12.8870 C.3    14  VAL14       0.0266
      6  CG1      -17.7330   -5.1900   11.6110 C.3    14  VAL14       0.0020
      7  CG2      -17.9200   -5.5740   14.0730 C.3    14  VAL14       0.0020
      8  N        -17.2490   -8.6640   13.8310 N.am   15  ASP15      -0.1960
      9  CA       -18.1070   -9.8270   14.0060 C.3    15  ASP15       0.1840
     10  C        -17.7860  -11.0780   13.1860 C.2    15  ASP15       0.2622
     11  O        -18.6140  -11.9870   13.0860 O.2    15  ASP15      -0.2715
     12  CB       -19.5810   -9.4390   13.8280 C.3    15  ASP15       0.1450
     13  CG       -20.1210   -8.6630   15.0200 C.2    15  ASP15       0.3671
     14  OD1      -19.6080   -8.8710   16.1470 O.co2  15  ASP15      -0.2456
     15  OD2      -21.0580   -7.8560   14.8400 O.co2  15  ASP15      -0.2456
     16  N        -16.5850  -11.1460   12.6150 N.am   16  HIS16      -0.1959
     17  CA       -16.2260  -12.3340   11.8590 C.3    16  HIS16       0.1787
     18  C        -15.7940  -13.4630   12.7940 C.2    16  HIS16       0.2621
     19  O        -15.6140  -14.5960   12.3640 O.2    16  HIS16      -0.2715
     20  CB       -15.1580  -12.0240   10.8090 C.3    16  HIS16       0.0785
     21  CG       -15.7250  -11.4410    9.5490 C.ar   16  HIS16       0.0821
     22  ND1      -15.0580  -11.4690    8.3430 N.ar   16  HIS16      -0.2267
     23  CD2      -16.9170  -10.8430    9.3040 C.ar   16  HIS16       0.1154
     24  CE1      -15.8150  -10.9190    7.4090 C.ar   16  HIS16       0.1986
     25  NE2      -16.9490  -10.5300    7.9660 N.ar   16  HIS16      -0.2212
     26  N        -15.6350  -13.1480   14.0770 N.am   17  GLY17      -0.1940
     27  CA       -15.3030  -14.1910   15.0350 C.3    17  GLY17       0.2014
     28  C        -14.0210  -14.1320   15.8460 C.2    17  GLY17       0.2639
     29  O        -13.6820  -15.1190   16.5020 O.2    17  GLY17      -0.2714
     30  N        -13.3260  -12.9990   15.8240 N.am   18  LYS18      -0.1963
     31  CA       -12.0650  -12.8390   16.5590 C.3    18  LYS18       0.1728
     32  C        -12.1510  -13.2140   18.0460 C.2    18  LYS18       0.2617
     33  O        -11.3480  -14.0080   18.5450 O.2    18  LYS18      -0.2715
     34  CB       -11.5650  -11.3950   16.4320 C.3    18  LYS18       0.0311
     35  CG       -11.3030  -10.9390   15.0060 C.3    18  LYS18       0.0038
     36  CD       -10.7890   -9.5000   14.9370 C.3    18  LYS18       0.0206
     37  CE       -11.8220   -8.4860   15.4370 C.3    18  LYS18       0.1093
     38  NZ       -13.0440   -8.4520   14.5670 N.3    18  LYS18      -0.1314
     39  N        -13.1200  -12.6410   18.7510 N.am   19  THR19      -0.1937
     40  CA       -13.2850  -12.9140   20.1780 C.3    19  THR19       0.2028
     41  C        -13.7260  -14.3450   20.4580 C.2    19  THR19       0.2642
     42  O        -13.2480  -14.9840   21.3950 O.2    19  THR19      -0.2714
     43  CB       -14.3010  -11.9280   20.8070 C.3    19  THR19       0.1808
     44  OG1      -13.7680  -10.6010   20.7330 O.3    19  THR19      -0.2208
     45  CG2      -14.5700  -12.2840   22.2700 C.3    19  THR19       0.0379
     46  N        -14.6380  -14.8550   19.6400 N.am   20  THR20      -0.1950
     47  CA       -15.1160  -16.2140   19.8230 C.3    20  THR20       0.1897
     48  C        -13.9630  -17.1860   19.6110 C.2    20  THR20       0.2313
     49  O        -13.8430  -18.1900   20.3230 O.2    20  THR20      -0.2863
     50  CB       -16.2540  -16.5320   18.8370 C.3    20  THR20       0.1794
     51  OG1      -17.3500  -15.6380   19.0880 O.3    20  THR20      -0.2208
     52  CG2      -16.7320  -17.9740   19.0040 C.3    20  THR20       0.0378
     53  N         -7.9250   -5.6350   20.6630 N.3    83  ALA83      -0.1231
     54  CA        -8.1970   -4.2300   20.9360 C.3    83  ALA83       0.1679
     55  C         -9.6830   -4.0920   20.6450 C.2    83  ALA83       0.2434
     56  O        -10.2080   -4.7890   19.7820 O.2    83  ALA83      -0.2733
     57  CB        -7.3860   -3.3320   20.0120 C.3    83  ALA83       0.0304
     58  N        -10.3840   -3.2130   21.3740 N.am   84  PRO84      -0.2718
     59  CA       -11.8220   -3.0210   21.1600 C.3    84  PRO84       0.1535
     60  C        -12.1490   -2.1980   19.9200 C.2    84  PRO84       0.2599
     61  O        -11.9540   -0.9820   19.9060 O.2    84  PRO84      -0.2715
     62  CB       -12.2750   -2.3000   22.4350 C.3    84  PRO84       0.0310
     63  CG       -11.1910   -2.6160   23.4430 C.3    84  PRO84       0.0237
     64  CD        -9.9510   -2.5320   22.6030 C.3    84  PRO84       0.0939
     65  N        -12.6420   -2.8620   18.8810 N.am   85  GLY85      -0.1941
     66  CA       -13.0080   -2.1530   17.6700 C.3    85  GLY85       0.2014
     67  C        -11.9200   -1.9800   16.6300 C.2    85  GLY85       0.2638
     68  O        -10.7240   -2.0430   16.9210 O.2    85  GLY85      -0.2714
     69  N        -12.3630   -1.7380   15.4020 N.am   86  HIS86      -0.1973
     70  CA       -11.4890   -1.5580   14.2550 C.3    86  HIS86       0.1656
     71  C        -10.3990   -0.4990   14.3920 C.2    86  HIS86       0.2291
     72  O         -9.2260   -0.7820   14.1550 O.2    86  HIS86      -0.2864
     73  CB       -12.3390   -1.2420   13.0180 C.3    86  HIS86       0.0771
     74  CG       -11.5360   -1.0250   11.7760 C.ar   86  HIS86       0.0820
     75  ND1      -10.7050   -1.9900   11.2510 N.ar   86  HIS86      -0.2267
     76  CD2      -11.4200    0.0520   10.9650 C.ar   86  HIS86       0.1154
     77  CE1      -10.1100   -1.5150   10.1710 C.ar   86  HIS86       0.1986
     78  NE2      -10.5260   -0.2780    9.9760 N.ar   86  HIS86      -0.2212
     79  N        -13.5810  -18.7440    9.2280 N.3   138  ASN138     -0.1225
     80  CA       -14.6030  -18.9970   10.2460 C.3   138  ASN138      0.1785
     81  C        -16.0610  -19.1670    9.8000 C.2   138  ASN138      0.2597
     82  O        -16.4460  -18.7630    8.7090 O.2   138  ASN138     -0.2718
     83  CB       -14.5310  -17.8690   11.2850 C.3   138  ASN138      0.1169
     84  CG       -15.1610  -18.2460   12.6100 C.2   138  ASN138      0.2627
     85  OD1      -15.6280  -17.3800   13.3640 O.2   138  ASN138     -0.2716
     86  ND2      -15.1590  -19.5310   12.9140 N.am  138  ASN138     -0.0877
     87  N        -16.8620  -19.7590   10.6850 N.am  139  LYS139     -0.1980
     88  CA       -18.2820  -19.9960   10.4480 C.3   139  LYS139      0.1596
     89  C        -18.4820  -20.9010    9.2400 C.2   139  LYS139      0.2287
     90  O        -19.4560  -20.7600    8.5010 O.2   139  LYS139     -0.2864
     91  CB       -19.0110  -18.6610   10.2310 C.3   139  LYS139      0.0298
     92  CG       -18.6850  -17.6010   11.2790 C.3   139  LYS139      0.0038
     93  CD       -19.5890  -16.3770   11.1630 C.3   139  LYS139      0.0206
     94  CE       -19.1870  -15.2950   12.1680 C.3   139  LYS139      0.1093
     95  NZ       -20.1190  -14.1270   12.1470 N.3   139  LYS139     -0.1314
     96  N        -19.4840  -23.8340    9.0610 N.3   141  GLU141     -0.1231
     97  CA       -20.6670  -24.6790    9.1270 C.3   141  GLU141      0.1699
     98  C        -21.9170  -23.9820    8.5890 C.2   141  GLU141      0.2592
     99  O        -22.9530  -24.6190    8.4000 O.2   141  GLU141     -0.2718
    100  CB       -20.9120  -25.1440   10.5690 C.3   141  GLU141      0.0402
    101  CG       -21.6920  -24.1640   11.4520 C.3   141  GLU141      0.1161
    102  CD       -20.8720  -22.9740   11.9330 C.2   141  GLU141      0.3649
    103  OE1      -19.7010  -22.8260   11.5290 O.co2 141  GLU141     -0.2457
    104  OE2      -21.4130  -22.1770   12.7250 O.co2 141  GLU141     -0.2457
    105  N        -21.8190  -22.6800    8.3370 N.am  142  LEU142     -0.1980
    106  CA       -22.9620  -21.9160    7.8440 C.3   142  LEU142      0.1596
    107  C        -23.1010  -21.9040    6.3230 C.2   142  LEU142      0.2287
    108  O        -24.0670  -21.3540    5.7930 O.2   142  LEU142     -0.2864
    109  CB       -22.9000  -20.4690    8.3490 C.3   142  LEU142      0.0297
    110  CG       -22.9960  -20.2210    9.8580 C.3   142  LEU142      0.0022
    111  CD1      -22.9330  -18.7230   10.1220 C.3   142  LEU142      0.0001
    112  CD2      -24.2950  -20.8050   10.4100 C.3   142  LEU142      0.0001
    113  N        -14.9390  -23.5900   12.8830 N.3   173  SER173     -0.1202
    114  CA       -16.1430  -23.0580   13.4970 C.3   173  SER173      0.2020
    115  C        -15.6300  -22.7050   14.8850 C.2   173  SER173      0.2619
    116  O        -15.4520  -23.5820   15.7330 O.2   173  SER173     -0.2717
    117  CB       -17.2580  -24.0860   13.6410 C.3   173  SER173      0.2103
    118  OG       -18.3240  -23.5050   14.3880 O.3   173  SER173     -0.2182
    119  N        -15.3520  -21.4280   15.1090 N.am  174  ALA174     -0.1965
    120  CA       -14.8500  -21.0060   16.4090 C.3   174  ALA174      0.1728
    121  C        -15.9210  -21.2250   17.4740 C.2   174  ALA174      0.2616
    122  O        -15.6220  -21.6130   18.6010 O.2   174  ALA174     -0.2715
    123  CB       -14.4390  -19.5450   16.3610 C.3   174  ALA174      0.0334
    124  N        -17.1780  -21.0000   17.1070 N.am  175  LEU175     -0.1963
    125  CA       -18.2730  -21.1650   18.0550 C.3   175  LEU175      0.1728
    126  C        -18.4480  -22.6060   18.5280 C.2   175  LEU175      0.2616
    127  O        -18.6240  -22.8550   19.7250 O.2   175  LEU175     -0.2715
    128  CB       -19.5910  -20.6680   17.4450 C.3   175  LEU175      0.0311
    129  CG       -20.7890  -20.6950   18.3930 C.3   175  LEU175      0.0022
    130  CD1      -20.5290  -19.7460   19.5730 C.3   175  LEU175      0.0001
    131  CD2      -22.0450  -20.2790   17.6400 C.3   175  LEU175      0.0001
    132  N        -18.3850  -23.5580   17.5990 N.am  176  HIS176     -0.1973
    133  CA       -18.5680  -24.9640   17.9530 C.3   176  HIS176      0.1656
    134  C        -17.2880  -25.7510   18.2080 C.2   176  HIS176      0.2291
    135  O        -17.3420  -26.9330   18.5590 O.2   176  HIS176     -0.2864
    136  CB       -19.3950  -25.6660   16.8780 C.3   176  HIS176      0.0771
    137  CG       -20.7750  -25.1090   16.7380 C.ar  176  HIS176      0.0820
    138  ND1      -21.1580  -24.3170   15.6760 N.ar  176  HIS176     -0.2267
    139  CD2      -21.8490  -25.1850   17.5580 C.ar  176  HIS176      0.1154
    140  CE1      -22.4100  -23.9310   15.8500 C.ar  176  HIS176      0.1986
    141  NE2      -22.8530  -24.4430   16.9830 N.ar  176  HIS176     -0.2212
@<TRIPOS>BOND
     1   108   107    2
     2   107   106    1
     3    24    25   ar
     4    24    22   ar
     5   106   105    1
     6   106   109    1
     7    25    23   ar
     8   105    98   am
     9    22    21   ar
    10   109   110    1
    11    99    98    2
    12    90    89    2
    13    98    97    1
    14    82    81    2
    15    96    97    1
    16    97   100    1
    17    79    80    1
    18    89    88    1
    19    23    21   ar
    20    21    20    1
    21    81    80    1
    22    81    87   am
    23   110   111    1
    24   110   112    1
    25    78    77   ar
    26    78    76   ar
    27    77    75   ar
    28    91    88    1
    29    91    92    1
    30    80    83    1
    31    88    87    1
    32   100   101    1
    33    20    17    1
    34    76    74   ar
    35    93    92    1
    36    93    94    1
    37    75    74   ar
    38    83    84    1
    39   101   102    1
    40   103   102   ar
    41     1     2    1
    42     6     5    1
    43     4     3    2
    44    74    73    1
    45    17    16    1
    46    17    18    1
    47   102   104   ar
    48    95    94    1
    49    19    18    2
    50    84    86   am
    51    84    85    2
    52    16    10   am
    53     3     2    1
    54     3     8   am
    55     2     5    1
    56    18    26   am
    57   113   114    1
    58     5     7    1
    59    73    70    1
    60    11    10    2
    61    10     9    1
    62   114   117    1
    63   114   115    1
    64   117   118    1
    65    12     9    1
    66    12    13    1
    67     8     9    1
    68    26    27    1
    69    72    71    2
    70    70    71    1
    71    70    69    1
    72    38    37    1
    73    15    13   ar
    74   115   119   am
    75   115   116    2
    76    36    35    1
    77    36    37    1
    78    35    34    1
    79    13    14   ar
    80    27    28    1
    81   119   120    1
    82    69    67   am
    83   138   140   ar
    84   138   137   ar
    85    30    28   am
    86    30    31    1
    87    28    29    2
    88   140   141   ar
    89   123   120    1
    90   120   121    1
    91    34    31    1
    92    31    32    1
    93    67    68    2
    94    67    66    1
    95   137   136    1
    96   137   139   ar
    97   136   133    1
    98   141   139   ar
    99   124   121   am
   100   124   125    1
   101   128   125    1
   102   128   129    1
   103   121   122    2
   104   132   133    1
   105   132   126   am
   106   131   129    1
   107    66    65    1
   108   133   134    1
   109    32    33    2
   110    32    39   am
   111   125   126    1
   112   134   135    2
   113   129   130    1
   114   126   127    2
   115    39    40    1
   116    50    52    1
   117    50    51    1
   118    50    47    1
   119    65    60   am
   120    48    47    1
   121    48    49    2
   122    46    47    1
   123    46    41   am
   124    56    55    2
   125    61    60    2
   126    60    59    1
   127    57    54    1
   128    40    41    1
   129    40    43    1
   130    41    42    2
   131    55    54    1
   132    55    58   am
   133    53    54    1
   134    44    43    1
   135    43    45    1
   136    59    58    1
   137    59    62    1
   138    58    64    1
   139    62    63    1
   140    64    63    1
