@<TRIPOS>MOLECULE
tmp/1kk4E00.pdb
 120 115 0 0 0
SMALL
GASTEIGER

@<TRIPOS>ATOM
      1  N        -14.8600  -37.2760  -21.4890 N.3    52  TYR52      -0.1241
      2  CA       -13.5330  -37.8880  -21.5320 C.3    52  TYR52       0.1605
      3  C        -13.1460  -38.8000  -20.3800 C.2    52  TYR52       0.2264
      4  O        -12.0120  -38.7480  -19.8850 O.2    52  TYR52      -0.2867
      5  CB       -12.4660  -36.8030  -21.6800 C.3    52  TYR52       0.0534
      6  CG       -12.7590  -35.8080  -22.7760 C.ar   52  TYR52      -0.0201
      7  CD1      -13.0100  -34.4700  -22.4760 C.ar   52  TYR52      -0.0009
      8  CD2      -12.7800  -36.1990  -24.1140 C.ar   52  TYR52      -0.0009
      9  CE1      -13.2710  -33.5470  -23.4790 C.ar   52  TYR52       0.0417
     10  CE2      -13.0400  -35.2840  -25.1260 C.ar   52  TYR52       0.0417
     11  CZ       -13.2840  -33.9600  -24.8000 C.ar   52  TYR52       0.1957
     12  OH       -13.5380  -33.0450  -25.7890 O.3    52  TYR52      -0.2866
     13  N        -15.1480  -32.8170  -16.6720 N.3    76  ILE76      -0.1245
     14  CA       -14.1190  -33.2120  -17.6130 C.3    76  ILE76       0.1561
     15  C        -13.0440  -34.0670  -16.9560 C.2    76  ILE76       0.2260
     16  O        -12.2480  -33.5790  -16.1540 O.2    76  ILE76      -0.2867
     17  CB       -13.4750  -31.9670  -18.2670 C.3    76  ILE76       0.0252
     18  CG1      -14.4940  -31.3100  -19.1960 C.3    76  ILE76       0.0019
     19  CG2      -12.2430  -32.3460  -19.0720 C.3    76  ILE76       0.0019
     20  CD1      -14.3540  -29.8360  -19.2440 C.3    76  ILE76       0.0001
     21  N         -8.8770  -35.8510  -21.8000 N.3    80  ALA80      -0.1231
     22  CA        -8.7120  -34.6790  -22.6450 C.3    80  ALA80       0.1694
     23  C         -7.3300  -34.0500  -22.6290 C.2    80  ALA80       0.2592
     24  O         -7.0940  -33.0420  -23.2910 O.2    80  ALA80      -0.2718
     25  CB        -9.7380  -33.6470  -22.2640 C.3    80  ALA80       0.0304
     26  N         -6.4200  -34.6410  -21.8690 N.am   81  ASN81      -0.1960
     27  CA        -5.0590  -34.1330  -21.7640 C.3    81  ASN81       0.1819
     28  C         -4.1880  -34.6070  -22.9110 C.2    81  ASN81       0.2621
     29  O         -4.2050  -35.7810  -23.2700 O.2    81  ASN81      -0.2715
     30  CB        -4.4490  -34.5990  -20.4520 C.3    81  ASN81       0.1195
     31  CG        -5.3830  -34.3960  -19.2870 C.2    81  ASN81       0.2630
     32  OD1       -6.1260  -33.4060  -19.2490 O.2    81  ASN81      -0.2716
     33  ND2       -5.3620  -35.3300  -18.3270 N.am   81  ASN81      -0.0877
     34  N         -3.4240  -33.6890  -23.4850 N.am   82  HIS82      -0.1973
     35  CA        -2.5290  -34.0300  -24.5770 C.3    82  HIS82       0.1656
     36  C         -1.1640  -34.1840  -23.9380 C.2    82  HIS82       0.2291
     37  O         -0.8330  -33.4490  -23.0070 O.2    82  HIS82      -0.2864
     38  CB        -2.4710  -32.8940  -25.6000 C.3    82  HIS82       0.0771
     39  CG        -3.6100  -32.8790  -26.5680 C.ar   82  HIS82       0.0820
     40  ND1       -3.4490  -32.5750  -27.9030 N.ar   82  HIS82      -0.2267
     41  CD2       -4.9340  -33.1010  -26.3920 C.ar   82  HIS82       0.1154
     42  CE1       -4.6200  -32.6080  -28.5080 C.ar   82  HIS82       0.1986
     43  NE2       -5.5390  -32.9230  -27.6160 N.ar   82  HIS82      -0.2212
     44  N          2.4260  -33.4350  -23.2550 N.3    84  MET84      -0.1245
     45  CA         3.0020  -32.1230  -23.4840 C.3    84  MET84       0.1570
     46  C          4.4640  -31.9700  -23.0900 C.2    84  MET84       0.2261
     47  O          4.9030  -30.8500  -22.7820 O.2    84  MET84      -0.2867
     48  CB         2.1720  -31.0550  -22.7740 C.3    84  MET84       0.0387
     49  CG         1.6500  -31.4840  -21.4300 C.3    84  MET84       0.0595
     50  SD         0.2000  -30.5520  -20.9100 S.3    84  MET84      -0.1393
     51  CE         1.0110  -29.1470  -20.1810 C.3    84  MET84       0.0692
     52  N         -0.1300  -36.8080  -18.8040 N.3   109  PRO109     -0.2116
     53  CA        -0.2100  -36.1780  -17.4880 C.3   109  PRO109      0.1372
     54  C         -1.6120  -36.3260  -16.8970 C.2   109  PRO109      0.2244
     55  O         -2.5550  -35.6850  -17.3580 O.2   109  PRO109     -0.2868
     56  CB         0.1340  -34.7250  -17.7740 C.3   109  PRO109      0.0268
     57  CG        -0.4310  -34.4920  -19.1510 C.3   109  PRO109      0.0207
     58  CD        -0.3370  -35.8290  -19.8870 C.3   109  PRO109      0.0892
     59  N         -4.0100  -35.9690  -13.5040 N.3   111  LYS111     -0.1245
     60  CA        -4.0730  -35.1490  -12.2790 C.3   111  LYS111      0.1561
     61  C         -4.8580  -35.7540  -11.1310 C.2   111  LYS111      0.2260
     62  O         -5.1300  -35.0950  -10.1230 O.2   111  LYS111     -0.2867
     63  CB        -4.6470  -33.7750  -12.6000 C.3   111  LYS111      0.0271
     64  CG        -3.8360  -33.0190  -13.6170 C.3   111  LYS111      0.0035
     65  CD        -4.3200  -31.5960  -13.7810 C.3   111  LYS111      0.0206
     66  CE        -4.1170  -31.1190  -15.2080 C.3   111  LYS111      0.1093
     67  NZ        -4.5370  -29.6940  -15.3960 N.3   111  LYS111     -0.1314
     68  N        -12.9200  -29.0560  -14.1260 N.3   129  MET129     -0.1231
     69  CA       -11.6930  -29.5970  -14.6940 C.3   129  MET129      0.1687
     70  C        -11.2750  -30.8710  -13.9780 C.2   129  MET129      0.2434
     71  O        -11.7480  -31.1570  -12.8840 O.2   129  MET129     -0.2733
     72  CB       -10.5720  -28.5600  -14.5950 C.3   129  MET129      0.0400
     73  CG       -10.7750  -27.3370  -15.4830 C.3   129  MET129      0.0596
     74  SD       -11.3970  -27.7180  -17.1630 S.3   129  MET129     -0.1393
     75  CE        -9.9290  -28.4030  -17.9330 C.3   129  MET129      0.0692
     76  N        -10.3940  -31.6660  -14.6060 N.am  130  PRO130     -0.2729
     77  CA        -9.9000  -32.9240  -14.0390 C.3   130  PRO130      0.1401
     78  C         -9.0890  -32.7970  -12.7590 C.2   130  PRO130      0.2269
     79  O         -8.3710  -31.8260  -12.5560 O.2   130  PRO130     -0.2865
     80  CB        -9.0670  -33.5330  -15.1710 C.3   130  PRO130      0.0296
     81  CG        -9.5260  -32.8350  -16.4140 C.3   130  PRO130      0.0237
     82  CD        -9.8520  -31.4430  -15.9580 C.3   130  PRO130      0.0939
     83  N        -15.6070  -21.9610  -13.8200 N.3   145  VAL145     -0.1245
     84  CA       -14.7740  -23.0330  -14.3490 C.3   145  VAL145      0.1561
     85  C        -13.8770  -23.2990  -13.1680 C.2   145  VAL145      0.2260
     86  O        -13.1480  -22.4130  -12.7140 O.2   145  VAL145     -0.2867
     87  CB       -13.9460  -22.5740  -15.5490 C.3   145  VAL145      0.0252
     88  CG1      -12.9750  -23.6780  -15.9780 C.3   145  VAL145      0.0019
     89  CG2      -14.8700  -22.2270  -16.6860 C.3   145  VAL145      0.0019
     90  N        -10.7790  -24.8990  -11.6850 N.3   147  VAL147     -0.1231
     91  CA        -9.4840  -25.4890  -12.0350 C.3   147  VAL147      0.1692
     92  C         -8.6420  -25.9490  -10.8500 C.2   147  VAL147      0.2591
     93  O         -7.6210  -26.6010  -11.0470 O.2   147  VAL147     -0.2718
     94  CB        -8.6300  -24.5220  -12.8720 C.3   147  VAL147      0.0266
     95  CG1       -9.4410  -24.0040  -14.0250 C.3   147  VAL147      0.0020
     96  CG2       -8.1360  -23.3770  -12.0090 C.3   147  VAL147      0.0020
     97  N         -9.0510  -25.5960   -9.6310 N.am  148  LYS148     -0.1980
     98  CA        -8.3290  -26.0060   -8.4230 C.3   148  LYS148      0.1596
     99  C         -9.3090  -26.3970   -7.3050 C.2   148  LYS148      0.2287
    100  O        -10.5130  -26.1990   -7.4380 O.2   148  LYS148     -0.2864
    101  CB        -7.4020  -24.8900   -7.9450 C.3   148  LYS148      0.0298
    102  CG        -8.0910  -23.5960   -7.6090 C.3   148  LYS148      0.0038
    103  CD        -7.0570  -22.4760   -7.4980 C.3   148  LYS148      0.0206
    104  CE        -7.6060  -21.2080   -6.8100 C.3   148  LYS148      0.1093
    105  NZ        -8.3180  -21.4430   -5.5040 N.3   148  LYS148     -0.1314
    106  N        -14.0310  -17.5340  -13.5970 N.3   159  ASN159     -0.1226
    107  CA       -13.3310  -18.3570  -14.5730 C.3   159  ASN159      0.1770
    108  C        -11.9550  -17.7490  -14.7470 C.2   159  ASN159      0.2439
    109  O        -11.7810  -16.8220  -15.5200 O.2   159  ASN159     -0.2733
    110  CB       -14.0740  -18.3360  -15.8990 C.3   159  ASN159      0.1168
    111  CG       -13.3980  -19.1740  -16.9460 C.2   159  ASN159      0.2627
    112  OD1      -12.4810  -19.9220  -16.6450 O.2   159  ASN159     -0.2716
    113  ND2      -13.8440  -19.0480  -18.1880 N.am  159  ASN159     -0.0877
    114  N        -10.9460  -18.3150  -14.0870 N.am  160  PRO160     -0.2729
    115  CA       -11.0670  -19.4670  -13.1960 C.3   160  PRO160      0.1401
    116  C        -11.7800  -19.1840  -11.8830 C.2   160  PRO160      0.2269
    117  O        -11.7270  -18.0730  -11.3560 O.2   160  PRO160     -0.2865
    118  CB        -9.6230  -19.8770  -12.9770 C.3   160  PRO160      0.0296
    119  CG        -8.9120  -18.5680  -12.9740 C.3   160  PRO160      0.0237
    120  CD        -9.5850  -17.7570  -14.0590 C.3   160  PRO160      0.0939
@<TRIPOS>BOND
     1    42    40   ar
     2    42    43   ar
     3    40    39   ar
     4    43    41   ar
     5    39    41   ar
     6    39    38    1
     7    12    11    1
     8    38    35    1
     9    10    11   ar
    10    10     8   ar
    11    11     9   ar
    12    35    36    1
    13    35    34    1
    14     8     6   ar
    15    36    37    2
    16    34    28   am
    17    45    44    1
    18    45    46    1
    19    45    48    1
    20     9     7   ar
    21    24    23    2
    22    29    28    2
    23    46    47    2
    24    28    27    1
    25     6     7   ar
    26     6     5    1
    27    48    49    1
    28    22    23    1
    29    22    25    1
    30    22    21    1
    31    23    26   am
    32    26    27    1
    33    27    30    1
    34     5     2    1
    35     2     1    1
    36     2     3    1
    37    49    50    1
    38    50    51    1
    39    30    31    1
    40     3     4    2
    41    58    57    1
    42    58    52    1
    43    31    32    2
    44    31    33   am
    45    20    18    1
    46    18    17    1
    47    57    56    1
    48    19    17    1
    49    52    53    1
    50    17    14    1
    51   113   111   am
    52    75    74    1
    53    56    53    1
    54    14    15    1
    55    14    13    1
    56    53    54    1
    57    55    54    2
    58    74    73    1
    59    15    16    2
    60   111   112    2
    61   111   110    1
    62    89    87    1
    63    81    82    1
    64    81    80    1
    65    88    87    1
    66    82    76    1
    67   110   107    1
    68    87    84    1
    69   109   108    2
    70    73    72    1
    71    67    66    1
    72    66    65    1
    73    80    77    1
    74   108   107    1
    75   108   114   am
    76    69    72    1
    77    69    68    1
    78    69    70    1
    79    76    77    1
    80    76    70   am
    81   107   106    1
    82    84    83    1
    83    84    85    1
    84   114   120    1
    85   114   115    1
    86   120   119    1
    87    77    78    1
    88    95    94    1
    89    70    71    2
    90    65    64    1
    91    64    63    1
    92    59    60    1
    93   115   118    1
    94   115   116    1
    95    85    86    2
    96   118   119    1
    97    94    91    1
    98    94    96    1
    99    78    79    2
   100    63    60    1
   101    60    61    1
   102    91    90    1
   103    91    92    1
   104   116   117    2
   105    61    62    2
   106    93    92    2
   107    92    97   am
   108    97    98    1
   109    98   101    1
   110    98    99    1
   111   101   102    1
   112   102   103    1
   113   103   104    1
   114   100    99    2
   115   104   105    1
