@<TRIPOS>MOLECULE
tmp/1kk4E01.pdb
 152 146 0 0 0
SMALL
GASTEIGER

@<TRIPOS>ATOM
      1  N        -28.9040  -34.9470   -6.9560 N.3    37  TYR37      -0.1241
      2  CA       -29.7210  -34.9430   -8.1640 C.3    37  TYR37       0.1605
      3  C        -29.1670  -33.9890   -9.2080 C.2    37  TYR37       0.2264
      4  O        -28.3230  -33.1320   -8.9180 O.2    37  TYR37      -0.2867
      5  CB       -31.1570  -34.5370   -7.8360 C.3    37  TYR37       0.0534
      6  CG       -31.3180  -33.0530   -7.5950 C.ar   37  TYR37      -0.0201
      7  CD1      -31.9050  -32.2290   -8.5530 C.ar   37  TYR37      -0.0009
      8  CD2      -30.8650  -32.4690   -6.4140 C.ar   37  TYR37      -0.0009
      9  CE1      -32.0370  -30.8660   -8.3400 C.ar   37  TYR37       0.0417
     10  CE2      -30.9960  -31.1090   -6.1940 C.ar   37  TYR37       0.0417
     11  CZ       -31.5840  -30.3190   -7.1620 C.ar   37  TYR37       0.1957
     12  OH       -31.7340  -28.9720   -6.9390 O.3    37  TYR37      -0.2866
     13  N        -30.4520  -31.3830  -12.3500 N.3    39  ASP39      -0.1239
     14  CA       -31.6050  -30.7060  -12.9110 C.3    39  ASP39       0.1674
     15  C        -31.3660  -30.5340  -14.4020 C.2    39  ASP39       0.2266
     16  O        -30.6860  -29.6070  -14.8180 O.2    39  ASP39      -0.2867
     17  CB       -31.7740  -29.3540  -12.2370 C.3    39  ASP39       0.1410
     18  CG       -33.1000  -28.7150  -12.5520 C.2    39  ASP39       0.3668
     19  OD1      -33.9680  -29.3910  -13.1500 O.co2  39  ASP39      -0.2456
     20  OD2      -33.2650  -27.5300  -12.2000 O.co2  39  ASP39      -0.2456
     21  N        -26.7380  -30.7710   -5.0000 N.3    68  SER68      -0.1202
     22  CA       -27.7020  -30.1920   -5.9230 C.3    68  SER68       0.2020
     23  C        -26.8950  -29.7920   -7.1370 C.2    68  SER68       0.2619
     24  O        -26.1770  -28.8050   -7.1050 O.2    68  SER68      -0.2717
     25  CB       -28.3620  -28.9610   -5.3170 C.3    68  SER68       0.2103
     26  OG       -28.7630  -29.2220   -3.9830 O.3    68  SER68      -0.2182
     27  N        -27.0010  -30.5660   -8.2070 N.am   69  ILE69      -0.1965
     28  CA       -26.2400  -30.2670   -9.4020 C.3    69  ILE69       0.1727
     29  C        -27.1170  -29.6370  -10.4620 C.2    69  ILE69       0.2617
     30  O        -28.0740  -30.2450  -10.9460 O.2    69  ILE69      -0.2715
     31  CB       -25.5680  -31.5380   -9.9400 C.3    69  ILE69       0.0290
     32  CG1      -24.4880  -31.9860   -8.9490 C.3    69  ILE69       0.0022
     33  CG2      -24.9450  -31.2730  -11.2990 C.3    69  ILE69       0.0023
     34  CD1      -24.0710  -33.4300   -9.0950 C.3    69  ILE69       0.0001
     35  N        -26.7650  -28.4060  -10.8090 N.am   70  GLY70      -0.1941
     36  CA       -27.5070  -27.6340  -11.7830 C.3    70  GLY70       0.1998
     37  C        -27.3770  -28.0390  -13.2360 C.2    70  GLY70       0.2480
     38  O        -26.5030  -28.8170  -13.6080 O.2    70  GLY70      -0.2729
     39  N        -28.2390  -27.4860  -14.0960 N.am   71  PRO71      -0.2726
     40  CA       -28.2530  -27.7760  -15.5300 C.3    71  PRO71       0.1402
     41  C        -26.9510  -27.5190  -16.2660 C.2    71  PRO71       0.2269
     42  O        -26.2190  -26.5870  -15.9490 O.2    71  PRO71      -0.2865
     43  CB       -29.3770  -26.8940  -16.0580 C.3    71  PRO71       0.0296
     44  CG       -29.5110  -25.8210  -15.0380 C.3    71  PRO71       0.0237
     45  CD       -29.2580  -26.4870  -13.7400 C.3    71  PRO71       0.0939
     46  N        -23.6580  -27.5320   -3.7180 N.3   121  TRP121     -0.1227
     47  CA       -24.5310  -26.9390   -4.7260 C.3   121  TRP121      0.1737
     48  C        -23.6940  -26.3060   -5.8300 C.2   121  TRP121      0.2595
     49  O        -22.9520  -25.3430   -5.5980 O.2   121  TRP121     -0.2718
     50  CB       -25.4300  -25.8830   -4.0680 C.3   121  TRP121      0.0564
     51  CG       -26.2810  -25.0860   -4.9990 C.ar  121  TRP121      0.0003
     52  CD1      -26.7900  -25.4870   -6.1970 C.ar  121  TRP121      0.0946
     53  CD2      -26.7330  -23.7350   -4.7990 C.ar  121  TRP121      0.0152
     54  NE1      -27.5320  -24.4690   -6.7600 N.ar  121  TRP121     -0.2442
     55  CE2      -27.5130  -23.3850   -5.9230 C.ar  121  TRP121      0.0810
     56  CE3      -26.5570  -22.7860   -3.7770 C.ar  121  TRP121      0.0012
     57  CZ2      -28.1090  -22.1360   -6.0550 C.ar  121  TRP121      0.0191
     58  CZ3      -27.1520  -21.5360   -3.9120 C.ar  121  TRP121      0.0001
     59  CH2      -27.9190  -21.2240   -5.0430 C.ar  121  TRP121      0.0015
     60  N        -23.8300  -26.8560   -7.0340 N.am  122  ILE122     -0.1966
     61  CA       -23.1040  -26.3850   -8.2020 C.3   122  ILE122      0.1727
     62  C        -24.0730  -25.7310   -9.1800 C.2   122  ILE122      0.2617
     63  O        -25.0900  -26.3160   -9.5520 O.2   122  ILE122     -0.2715
     64  CB       -22.3620  -27.5650   -8.8460 C.3   122  ILE122      0.0290
     65  CG1      -21.3310  -28.0850   -7.8340 C.3   122  ILE122      0.0022
     66  CG2      -21.6920  -27.1480  -10.1450 C.3   122  ILE122      0.0023
     67  CD1      -20.7470  -29.4120   -8.1720 C.3   122  ILE122      0.0001
     68  N        -23.7580  -24.4950   -9.5630 N.am  123  GLY123     -0.1940
     69  CA       -24.5990  -23.7400  -10.4760 C.3   123  GLY123      0.2014
     70  C        -24.6940  -24.2810  -11.8860 C.2   123  GLY123      0.2638
     71  O        -23.9200  -25.1310  -12.3020 O.2   123  GLY123     -0.2714
     72  N        -25.6620  -23.7740  -12.6290 N.am  124  LYS124     -0.1977
     73  CA       -25.8770  -24.2150  -13.9910 C.3   124  LYS124      0.1596
     74  C        -24.6880  -23.8840  -14.8570 C.2   124  LYS124      0.2287
     75  O        -24.0630  -22.8500  -14.6960 O.2   124  LYS124     -0.2864
     76  CB       -27.1100  -23.5400  -14.5670 C.3   124  LYS124      0.0298
     77  CG       -26.8680  -22.1040  -14.9470 C.3   124  LYS124      0.0038
     78  CD       -28.1450  -21.4760  -15.4780 C.3   124  LYS124      0.0206
     79  CE       -28.4150  -21.8710  -16.9280 C.3   124  LYS124      0.1093
     80  NZ       -27.7600  -20.9070  -17.8500 N.3   124  LYS124     -0.1314
     81  N        -20.4900  -23.9620   -2.2950 N.3   139  ILE139     -0.1231
     82  CA       -21.4780  -23.5340   -3.2710 C.3   139  ILE139      0.1692
     83  C        -20.7010  -22.9790   -4.4460 C.2   139  ILE139      0.2592
     84  O        -19.8450  -22.1160   -4.2630 O.2   139  ILE139     -0.2718
     85  CB       -22.3880  -22.4190   -2.7130 C.3   139  ILE139      0.0266
     86  CG1      -23.4610  -23.0190   -1.8130 C.3   139  ILE139      0.0019
     87  CG2      -23.0600  -21.6700   -3.8480 C.3   139  ILE139      0.0020
     88  CD1      -24.1320  -21.9910   -0.9200 C.3   139  ILE139      0.0001
     89  N        -20.9980  -23.4660   -5.6470 N.am  140  VAL140     -0.1966
     90  CA       -20.3020  -22.9990   -6.8350 C.3   140  VAL140      0.1727
     91  C        -21.2000  -22.1720   -7.7460 C.2   140  VAL140      0.2616
     92  O        -22.1710  -22.6820   -8.3200 O.2   140  VAL140     -0.2715
     93  CB       -19.7510  -24.1600   -7.6410 C.3   140  VAL140      0.0290
     94  CG1      -18.7530  -23.6240   -8.6440 C.3   140  VAL140      0.0023
     95  CG2      -19.1030  -25.1850   -6.7200 C.3   140  VAL140      0.0023
     96  N        -20.8530  -20.8940   -7.8820 N.am  141  ALA141     -0.1963
     97  CA       -21.6130  -19.9610   -8.7020 C.3   141  ALA141      0.1728
     98  C        -21.7690  -20.4400  -10.1320 C.2   141  ALA141      0.2616
     99  O        -20.8850  -21.0960  -10.6880 O.2   141  ALA141     -0.2715
    100  CB       -20.9480  -18.6050   -8.6820 C.3   141  ALA141      0.0334
    101  N        -22.9090  -20.1090  -10.7240 N.am  142  ALA142     -0.1977
    102  CA       -23.1890  -20.5020  -12.0880 C.3   142  ALA142      0.1597
    103  C        -22.0780  -20.0040  -13.0060 C.2   142  ALA142      0.2287
    104  O        -21.4480  -18.9810  -12.7450 O.2   142  ALA142     -0.2864
    105  CB       -24.5150  -19.9270  -12.5140 C.3   142  ALA142      0.0319
    106  N        -19.0100  -20.9540  -13.5500 N.3   144  SER144     -0.1217
    107  CA       -17.6340  -20.8880  -13.0990 C.3   144  SER144      0.1889
    108  C        -16.9280  -22.0660  -13.7240 C.2   144  SER144      0.2288
    109  O        -17.5710  -23.0380  -14.1380 O.2   144  SER144     -0.2866
    110  CB       -17.5440  -21.0120  -11.5800 C.3   144  SER144      0.2089
    111  OG       -18.5820  -20.2980  -10.9240 O.3   144  SER144     -0.2183
    112  N        -17.6850  -20.4910   -0.6650 N.3   155  LEU155     -0.1245
    113  CA       -18.5120  -20.0200   -1.7630 C.3   155  LEU155      0.1561
    114  C        -17.5140  -19.5050   -2.8090 C.2   155  LEU155      0.2260
    115  O        -16.7810  -18.5480   -2.5500 O.2   155  LEU155     -0.2867
    116  CB       -19.3980  -18.8840   -1.2740 C.3   155  LEU155      0.0270
    117  CG       -20.1620  -18.1320   -2.3510 C.3   155  LEU155      0.0019
    118  CD1      -21.1870  -19.0590   -2.9950 C.3   155  LEU155      0.0001
    119  CD2      -20.8220  -16.9340   -1.7100 C.3   155  LEU155      0.0001
    120  N        -16.4650  -18.7150   -7.1940 N.3   157  GLY157     -0.1210
    121  CA       -16.9900  -18.4570   -8.5230 C.3   157  GLY157      0.1956
    122  C        -16.0060  -17.7550   -9.4430 C.2   157  GLY157      0.2612
    123  O        -14.9710  -17.2490   -8.9940 O.2   157  GLY157     -0.2717
    124  N        -16.3330  -17.7260  -10.7360 N.am  158  GLY158     -0.1956
    125  CA       -15.4720  -17.0850  -11.7100 C.3   158  GLY158      0.1869
    126  C        -14.7950  -18.0670  -12.6530 C.2   158  GLY158      0.2309
    127  O        -14.9600  -19.2810  -12.5430 O.2   158  GLY158     -0.2863
    128  N        -12.7020  -19.0220   -7.9930 N.3   162  ASN162     -0.1240
    129  CA       -11.9130  -18.6690   -6.8150 C.3   162  ASN162      0.1653
    130  C        -12.7870  -18.6580   -5.5740 C.2   162  ASN162      0.2266
    131  O        -13.9970  -18.4510   -5.6600 O.2   162  ASN162     -0.2867
    132  CB       -11.2730  -17.2940   -6.9930 C.3   162  ASN162      0.1155
    133  CG        -9.8270  -17.3880   -7.3830 C.2   162  ASN162      0.2627
    134  OD1       -9.1010  -18.2480   -6.8830 O.2   162  ASN162     -0.2716
    135  ND2       -9.3900  -16.5150   -8.2850 N.am  162  ASN162     -0.0877
    136  N        -14.5360  -17.0900   -2.7340 N.3   164  ILE164     -0.1231
    137  CA       -14.9700  -15.7240   -2.4920 C.3   164  ILE164      0.1692
    138  C        -15.0580  -15.3610   -1.0220 C.2   164  ILE164      0.2591
    139  O        -14.6950  -14.2560   -0.6300 O.2   164  ILE164     -0.2718
    140  CB       -16.3480  -15.4680   -3.0990 C.3   164  ILE164      0.0266
    141  CG1      -16.3410  -15.8250   -4.5770 C.3   164  ILE164      0.0019
    142  CG2      -16.7350  -14.0230   -2.8990 C.3   164  ILE164      0.0020
    143  CD1      -17.6730  -15.6490   -5.2200 C.3   164  ILE164      0.0001
    144  N        -15.5610  -16.2860   -0.2160 N.am  165  LYS165     -0.1980
    145  CA       -15.7260  -16.0550    1.2080 C.3   165  LYS165      0.1596
    146  C        -16.2970  -17.3230    1.7820 C.2   165  LYS165      0.2287
    147  O        -16.9180  -18.0990    1.0630 O.2   165  LYS165     -0.2864
    148  CB       -16.7100  -14.9020    1.4530 C.3   165  LYS165      0.0298
    149  CG       -17.8420  -15.2230    2.4340 C.3   165  LYS165      0.0038
    150  CD       -19.1610  -14.5440    2.0510 C.3   165  LYS165      0.0206
    151  CE       -19.8650  -13.9550    3.2780 C.3   165  LYS165      0.1093
    152  NZ       -20.6500  -12.7160    2.9630 N.3   165  LYS165     -0.1314
@<TRIPOS>BOND
     1    80    79    1
     2    79    78    1
     3    41    42    2
     4    41    40    1
     5    43    40    1
     6    43    44    1
     7    40    39    1
     8    78    77    1
     9    44    45    1
    10    77    76    1
    11    74    75    2
    12    74    73    1
    13    16    15    2
    14    76    73    1
    15    15    14    1
    16   109   108    2
    17    39    45    1
    18    39    37   am
    19    73    72    1
    20   108   107    1
    21    38    37    2
    22   106   107    1
    23    37    36    1
    24    19    18   ar
    25   107   110    1
    26   103   104    2
    27   103   102    1
    28    14    13    1
    29    14    17    1
    30   126   127    2
    31   126   125    1
    32    72    70   am
    33    18    17    1
    34    18    20   ar
    35   105   102    1
    36    71    70    2
    37   102   101    1
    38    70    69    1
    39    36    35    1
    40   125   124    1
    41   110   111    1
    42    33    31    1
    43    30    29    2
    44    35    29   am
    45   124   122   am
    46   101    98   am
    47    99    98    2
    48    69    68    1
    49    29    28    1
    50    66    64    1
    51    98    97    1
    52    31    28    1
    53    31    32    1
    54    68    62   am
    55    63    62    2
    56   122   123    2
    57   122   121    1
    58    28    27    1
    59     3     4    2
    60     3     2    1
    61    62    61    1
    62    34    32    1
    63    64    61    1
    64    64    65    1
    65    97   100    1
    66    97    96    1
    67    94    93    1
    68     7     9   ar
    69     7     6   ar
    70   121   120    1
    71     9    11   ar
    72    92    91    2
    73   135   133   am
    74    27    23   am
    75    61    60    1
    76    67    65    1
    77     2     5    1
    78     2     1    1
    79   128   129    1
    80    96    91   am
    81     5     6    1
    82    91    90    1
    83    93    90    1
    84    93    95    1
    85     6     8   ar
    86   133   132    1
    87   133   134    2
    88    11    12    1
    89    11    10   ar
    90    23    24    2
    91    23    22    1
    92    60    48   am
    93   132   129    1
    94    90    89    1
    95   129   130    1
    96    54    52   ar
    97    54    55   ar
    98     8    10   ar
    99    52    51   ar
   100    57    55   ar
   101    57    59   ar
   102    55    53   ar
   103    22    25    1
   104    22    21    1
   105    48    49    2
   106    48    47    1
   107   131   130    2
   108    89    83   am
   109    25    26    1
   110   143   141    1
   111    59    58   ar
   112    51    53   ar
   113    51    50    1
   114    53    56   ar
   115    47    50    1
   116    47    46    1
   117   141   140    1
   118    83    84    2
   119    83    82    1
   120    58    56   ar
   121    87    85    1
   122    82    85    1
   123    82    81    1
   124   140   142    1
   125   140   137    1
   126   118   117    1
   127   114   115    2
   128   114   113    1
   129   136   137    1
   130    85    86    1
   131   137   138    1
   132   117   119    1
   133   117   116    1
   134    86    88    1
   135   113   116    1
   136   113   112    1
   137   138   139    2
   138   138   144   am
   139   144   145    1
   140   147   146    2
   141   145   148    1
   142   145   146    1
   143   148   149    1
   144   150   149    1
   145   150   151    1
   146   152   151    1
