@<TRIPOS>MOLECULE
tmp/1kkfA00.pdb
 97 94 0 0 0
SMALL
GASTEIGER

@<TRIPOS>ATOM
      1  N         -6.9240   47.4150   52.8170 N.3    12  GLY12      -0.1210
      2  CA        -6.8780   47.6380   51.3840 C.3    12  GLY12       0.1956
      3  C         -5.5100   48.1730   50.9650 C.2    12  GLY12       0.2612
      4  O         -4.6260   48.3900   51.8040 O.2    12  GLY12      -0.2717
      5  N         -5.3030   48.3130   49.6610 N.am   13  ASP13      -0.1959
      6  CA        -4.0450   48.8360   49.1330 C.3    13  ASP13       0.1840
      7  C         -2.8120   48.0250   49.4680 C.2    13  ASP13       0.2622
      8  O         -1.7140   48.5650   49.5170 O.2    13  ASP13      -0.2715
      9  CB        -3.8490   50.2830   49.5760 C.3    13  ASP13       0.1450
     10  CG        -4.9830   51.1740   49.1270 C.2    13  ASP13       0.3671
     11  OD1       -5.6410   50.8260   48.1490 O.co2  13  ASP13      -0.2456
     12  OD2       -5.2560   52.2040   49.7490 O.co2  13  ASP13      -0.2456
     13  N         -2.9780   46.7200   49.6420 N.am   14  GLU14      -0.1963
     14  CA        -1.8620   45.8420   49.9940 C.3    14  GLU14       0.1733
     15  C         -1.1410   45.3170   48.7680 C.2    14  GLU14       0.2617
     16  O         -0.0700   44.7310   48.8910 O.2    14  GLU14      -0.2715
     17  CB        -2.3430   44.6530   50.8310 C.3    14  GLU14       0.0429
     18  CG        -3.1590   45.0120   52.0340 C.3    14  GLU14       0.1163
     19  CD        -4.6440   45.0800   51.7450 C.2    14  GLU14       0.3649
     20  OE1       -5.0310   45.1150   50.5590 O.co2  14  GLU14      -0.2457
     21  OE2       -5.4460   45.0920   52.7070 O.co2  14  GLU14      -0.2457
     22  N         -1.7710   45.4530   47.6010 N.am   15  GLY15      -0.1940
     23  CA        -1.1670   45.0070   46.3540 C.3    15  GLY15       0.2014
     24  C         -1.8360   43.8030   45.7400 C.2    15  GLY15       0.2639
     25  O         -1.1710   42.9480   45.1610 O.2    15  GLY15      -0.2714
     26  N         -3.1580   43.7510   45.8210 N.am   16  LYS16      -0.1963
     27  CA        -3.9180   42.6240   45.2860 C.3    16  LYS16       0.1728
     28  C         -3.9180   42.4740   43.7650 C.2    16  LYS16       0.2616
     29  O         -3.8130   41.3480   43.2470 O.2    16  LYS16      -0.2715
     30  CB        -5.3430   42.6630   45.8150 C.3    16  LYS16       0.0311
     31  CG        -5.4330   42.3990   47.3260 C.3    16  LYS16       0.0038
     32  CD        -6.8740   42.4600   47.8200 C.3    16  LYS16       0.0206
     33  CE        -7.4290   43.8710   47.7100 C.3    16  LYS16       0.1093
     34  NZ        -6.6770   44.8230   48.5720 N.3    16  LYS16      -0.1314
     35  N         -4.0390   43.6000   43.0610 N.am   17  GLY17      -0.1955
     36  CA        -4.0380   43.5940   41.6030 C.3    17  GLY17       0.1869
     37  C         -2.8160   42.8930   41.0230 C.2    17  GLY17       0.2309
     38  O         -2.9290   41.8960   40.2610 O.2    17  GLY17      -0.2863
     39  N        -14.1820   51.8390   43.6220 N.3    38  ASN38      -0.1225
     40  CA       -13.5050   52.5370   44.7060 C.3    38  ASN38       0.1785
     41  C        -12.1150   51.9140   44.7690 C.2    38  ASN38       0.2597
     42  O        -11.1340   52.5850   45.0860 O.2    38  ASN38      -0.2718
     43  CB       -14.2690   52.4180   46.0440 C.3    38  ASN38       0.1169
     44  CG       -14.6790   50.9760   46.3950 C.2    38  ASN38       0.2627
     45  OD1      -14.6930   50.0740   45.5480 O.2    38  ASN38      -0.2716
     46  ND2      -15.0710   50.7750   47.6440 N.am   38  ASN38      -0.0877
     47  N        -12.0200   50.6460   44.3700 N.am   39  ALA39      -0.1966
     48  CA       -10.7450   49.9500   44.3580 C.3    39  ALA39       0.1728
     49  C         -9.8690   50.5550   43.2680 C.2    39  ALA39       0.2617
     50  O        -10.3500   51.2470   42.3590 O.2    39  ALA39      -0.2715
     51  CB       -10.9650   48.4770   44.0970 C.3    39  ALA39       0.0334
     52  N         -8.5750   50.3190   43.3660 N.am   40  GLY40      -0.1940
     53  CA        -7.6690   50.8440   42.3670 C.3    40  GLY40       0.2014
     54  C         -6.4950   49.9080   42.3310 C.2    40  GLY40       0.2639
     55  O         -5.5910   50.0480   43.1320 O.2    40  GLY40      -0.2714
     56  N         -6.5550   48.9010   41.4740 N.am   41  HIS41      -0.1959
     57  CA        -5.4860   47.9210   41.3510 C.3    41  HIS41       0.1787
     58  C         -4.4780   48.3150   40.2520 C.2    41  HIS41       0.2620
     59  O         -4.8690   48.6010   39.1180 O.2    41  HIS41      -0.2715
     60  CB        -6.0890   46.5450   41.0570 C.3    41  HIS41       0.0785
     61  CG        -7.0820   46.0830   42.0830 C.ar   41  HIS41       0.0821
     62  ND1       -7.0640   44.8310   42.6690 N.ar   41  HIS41      -0.2267
     63  CD2       -8.1670   46.7090   42.5940 C.ar   41  HIS41       0.1154
     64  CE1       -8.1210   44.7260   43.5010 C.ar   41  HIS41       0.1986
     65  NE2       -8.8260   45.8390   43.4960 N.ar   41  HIS41      -0.2212
     66  N         -3.1910   48.3390   40.5850 N.am   42  THR42      -0.1951
     67  CA        -2.1480   48.7040   39.6290 C.3    42  THR42       0.1897
     68  C         -1.2960   47.5270   39.1450 C.2    42  THR42       0.2313
     69  O         -0.5970   46.8740   39.9290 O.2    42  THR42      -0.2863
     70  CB        -1.2350   49.7850   40.2060 C.3    42  THR42       0.1794
     71  OG1       -2.0150   50.9490   40.4880 O.3    42  THR42      -0.2208
     72  CG2       -0.1520   50.1550   39.2230 C.3    42  THR42       0.0378
     73  N        -11.4220   43.3010   46.8140 N.3   223  ALA223     -0.1231
     74  CA       -11.2180   44.7290   46.7480 C.3   223  ALA223      0.1694
     75  C        -11.1590   45.1450   48.2310 C.2   223  ALA223      0.2591
     76  O        -11.6390   44.4200   49.1070 O.2   223  ALA223     -0.2718
     77  CB       -12.3790   45.3920   46.0150 C.3   223  ALA223      0.0304
     78  N        -10.5830   46.3110   48.5000 N.am  224  GLN224     -0.1979
     79  CA       -10.3980   46.8140   49.8610 C.3   224  GLN224      0.1601
     80  C         -9.6520   45.7990   50.7640 C.2   224  GLN224      0.2287
     81  O         -8.8540   44.9870   50.2690 O.2   224  GLN224     -0.2864
     82  CB       -11.7270   47.2800   50.4670 C.3   224  GLN224      0.0394
     83  CG       -12.3080   48.5340   49.8340 C.3   224  GLN224      0.0908
     84  CD       -13.0000   48.2790   48.4800 C.2   224  GLN224      0.2608
     85  OE1      -14.0490   47.6230   48.4060 O.2   224  GLN224     -0.2717
     86  NE2      -12.4320   48.8350   47.4150 N.am  224  GLN224     -0.0878
     87  N         -1.8460   58.4310   51.4950 N.3   305  ARG305     -0.1245
     88  CA        -2.2130   57.3810   52.4320 C.3   305  ARG305      0.1563
     89  C         -1.4170   57.4420   53.7330 C.2   305  ARG305      0.2260
     90  O         -0.2020   57.6770   53.7310 O.2   305  ARG305     -0.2867
     91  CB        -2.0770   56.0110   51.7510 C.3   305  ARG305      0.0307
     92  CG        -2.8630   55.9380   50.4280 C.3   305  ARG305      0.0489
     93  CD        -3.1460   54.5370   49.9500 C.3   305  ARG305      0.2205
     94  NE        -2.0430   54.0230   49.1530 N.pl3 305  ARG305     -0.0865
     95  CZ        -2.2300   53.4660   47.9530 C.cat 305  ARG305      0.5346
     96  NH1       -3.4410   53.3660   47.3920 N.pl3 305  ARG305      0.1354
     97  NH2       -1.2020   52.8690   47.3710 N.pl3 305  ARG305      0.1354
@<TRIPOS>BOND
     1    59    58    2
     2    68    67    1
     3    68    69    2
     4    72    70    1
     5    67    70    1
     6    67    66    1
     7    70    71    1
     8    58    66   am
     9    58    57    1
    10    38    37    2
    11    37    36    1
    12    60    57    1
    13    60    61    1
    14    57    56    1
    15    56    54   am
    16    36    35    1
    17    61    63   ar
    18    61    62   ar
    19    54    53    1
    20    54    55    2
    21    50    49    2
    22    53    52    1
    23    63    65   ar
    24    62    64   ar
    25    35    28   am
    26    29    28    2
    27    49    52   am
    28    49    48    1
    29    65    64   ar
    30    39    40    1
    31    28    27    1
    32    51    48    1
    33    48    47    1
    34    47    41   am
    35    40    41    1
    36    40    43    1
    37    41    42    2
    38    25    24    2
    39    27    30    1
    40    27    26    1
    41    45    44    2
    42    24    26   am
    43    24    23    1
    44    30    31    1
    45    77    74    1
    46    43    44    1
    47    23    22    1
    48    44    46   am
    49    74    73    1
    50    74    75    1
    51    31    32    1
    52    97    95    1
    53    96    95    1
    54    86    84   am
    55    22    15   am
    56    33    32    1
    57    33    34    1
    58    95    94    2
    59    11    10   ar
    60    75    78   am
    61    75    76    2
    62    85    84    2
    63    84    83    1
    64    78    79    1
    65    15    16    2
    66    15    14    1
    67    10     9    1
    68    10    12   ar
    69     6     7    1
    70     6     9    1
    71     6     5    1
    72    94    93    1
    73     7     8    2
    74     7    13   am
    75    13    14    1
    76     5     3   am
    77    83    82    1
    78    79    82    1
    79    79    80    1
    80    93    92    1
    81    14    17    1
    82    81    80    2
    83    92    91    1
    84    20    19   ar
    85    17    18    1
    86     3     2    1
    87     3     4    2
    88     2     1    1
    89    87    88    1
    90    19    18    1
    91    19    21   ar
    92    91    88    1
    93    88    89    1
    94    90    89    2
