@<TRIPOS>MOLECULE
tmp/1kkkA01.pdb
 107 105 0 0 0
SMALL
GASTEIGER

@<TRIPOS>ATOM
      1  N         29.6040   32.5730   68.4090 N.3   110  TYR110     -0.1241
      2  CA        30.1460   33.1590   67.1880 C.3   110  TYR110      0.1605
      3  C         31.2220   34.2050   67.4860 C.2   110  TYR110      0.2264
      4  O         30.9390   35.2480   68.0780 O.2   110  TYR110     -0.2867
      5  CB        28.9940   33.7850   66.4000 C.3   110  TYR110      0.0534
      6  CG        29.3260   34.1640   64.9820 C.ar  110  TYR110     -0.0201
      7  CD1       29.6580   33.1930   64.0370 C.ar  110  TYR110     -0.0009
      8  CD2       29.2870   35.4930   64.5750 C.ar  110  TYR110     -0.0009
      9  CE1       29.9420   33.5410   62.7200 C.ar  110  TYR110      0.0417
     10  CE2       29.5670   35.8530   63.2640 C.ar  110  TYR110      0.0417
     11  CZ        29.8940   34.8740   62.3410 C.ar  110  TYR110      0.1957
     12  OH        30.1740   35.2340   61.0400 O.3   110  TYR110     -0.2866
     13  N         32.8010   36.5320   65.7930 N.3   112  ASN112     -0.1225
     14  CA        32.9290   37.4370   64.6730 C.3   112  ASN112      0.1785
     15  C         31.8730   38.5360   64.7150 C.2   112  ASN112      0.2597
     16  O         30.8720   38.4290   65.4200 O.2   112  ASN112     -0.2718
     17  CB        32.7870   36.6270   63.3810 C.3   112  ASN112      0.1169
     18  CG        33.2150   37.3920   62.1590 C.2   112  ASN112      0.2627
     19  OD1       34.3750   37.7720   62.0320 O.2   112  ASN112     -0.2716
     20  ND2       32.2800   37.6170   61.2400 N.am  112  ASN112     -0.0877
     21  N         32.1350   39.6030   63.9720 N.am  113  ALA113     -0.1966
     22  CA        31.2160   40.7260   63.8370 C.3   113  ALA113      0.1728
     23  C         31.3790   41.1100   62.3770 C.2   113  ALA113      0.2616
     24  O         32.4520   40.9240   61.8120 O.2   113  ALA113     -0.2715
     25  CB        31.6300   41.8810   64.7340 C.3   113  ALA113      0.0334
     26  N         30.3290   41.6230   61.7500 N.am  114  PHE114     -0.1974
     27  CA        30.4550   42.0060   60.3540 C.3   114  PHE114      0.1639
     28  C         29.3580   42.9280   59.8730 C.2   114  PHE114      0.2290
     29  O         28.3450   43.1280   60.5450 O.2   114  PHE114     -0.2864
     30  CB        30.4830   40.7650   59.4420 C.3   114  PHE114      0.0560
     31  CG        29.2530   39.8910   59.5370 C.ar  114  PHE114     -0.0200
     32  CD1       29.1370   38.9320   60.5380 C.ar  114  PHE114     -0.0042
     33  CD2       28.2260   40.0070   58.6030 C.ar  114  PHE114     -0.0042
     34  CE1       28.0200   38.0950   60.6100 C.ar  114  PHE114     -0.0003
     35  CE2       27.1040   39.1760   58.6650 C.ar  114  PHE114     -0.0003
     36  CZ        27.0010   38.2180   59.6690 C.ar  114  PHE114     -0.0000
     37  N         34.8200   49.9330   63.5910 N.3   142  HIS142     -0.1226
     38  CA        35.4490   49.2360   62.4700 C.3   142  HIS142      0.1752
     39  C         34.3470   48.7730   61.5200 C.2   142  HIS142      0.2595
     40  O         34.4390   48.9540   60.3080 O.2   142  HIS142     -0.2718
     41  CB        36.2470   48.0230   62.9820 C.3   142  HIS142      0.0759
     42  CG        36.8160   47.1530   61.8980 C.ar  142  HIS142      0.0818
     43  ND1       38.1660   47.0880   61.6250 N.ar  142  HIS142     -0.2268
     44  CD2       36.2190   46.2860   61.0440 C.ar  142  HIS142      0.1154
     45  CE1       38.3760   46.2180   60.6520 C.ar  142  HIS142      0.1986
     46  NE2       37.2110   45.7170   60.2820 N.ar  142  HIS142     -0.2212
     47  N         33.2910   48.1910   62.0790 N.am  143  GLU143     -0.1979
     48  CA        32.1970   47.6940   61.2530 C.3   143  GLU143      0.1602
     49  C         31.3950   48.7950   60.5640 C.2   143  GLU143      0.2287
     50  O         31.0580   48.6660   59.3860 O.2   143  GLU143     -0.2864
     51  CB        31.2550   46.8190   62.0810 C.3   143  GLU143      0.0415
     52  CG        31.8970   45.5670   62.6860 C.3   143  GLU143      0.1163
     53  CD        32.6300   44.7080   61.6640 C.2   143  GLU143      0.3649
     54  OE1       32.2930   44.7700   60.4660 O.co2 143  GLU143     -0.2457
     55  OE2       33.5400   43.9500   62.0650 O.co2 143  GLU143     -0.2457
     56  N         33.0360   50.1000   57.5250 N.3   146  HIS146     -0.1241
     57  CA        32.9570   49.2880   56.3120 C.3   146  HIS146      0.1621
     58  C         31.7850   49.8220   55.4930 C.2   146  HIS146      0.2264
     59  O         31.8480   49.8650   54.2690 O.2   146  HIS146     -0.2867
     60  CB        32.7190   47.8070   56.6300 C.3   146  HIS146      0.0745
     61  CG        33.9760   47.0250   56.8640 C.ar  146  HIS146      0.0817
     62  ND1       35.0280   47.0250   55.9720 N.ar  146  HIS146     -0.2268
     63  CD2       34.3350   46.1920   57.8700 C.ar  146  HIS146      0.1154
     64  CE1       35.9810   46.2250   56.4180 C.ar  146  HIS146      0.1986
     65  NE2       35.5840   45.7070   57.5670 N.ar  146  HIS146     -0.2212
     66  N         36.6640   43.8710   48.2350 N.3   157  TYR157     -0.1241
     67  CA        37.2240   43.1140   49.3540 C.3   157  TYR157      0.1605
     68  C         38.1440   41.9680   48.9560 C.2   157  TYR157      0.2264
     69  O         37.9070   40.8090   49.3120 O.2   157  TYR157     -0.2867
     70  CB        36.0900   42.5770   50.2260 C.3   157  TYR157      0.0534
     71  CG        36.4550   42.4680   51.6860 C.ar  157  TYR157     -0.0201
     72  CD1       36.8690   43.5920   52.4020 C.ar  157  TYR157     -0.0009
     73  CD2       36.3650   41.2500   52.3620 C.ar  157  TYR157     -0.0009
     74  CE1       37.1810   43.5100   53.7560 C.ar  157  TYR157      0.0417
     75  CE2       36.6750   41.1560   53.7200 C.ar  157  TYR157      0.0417
     76  CZ        37.0800   42.2910   54.4090 C.ar  157  TYR157      0.1957
     77  OH        37.3690   42.2150   55.7500 O.3   157  TYR157     -0.2866
     78  N         40.2460   47.1430   54.8250 N.3   166  GLU166     -0.1245
     79  CA        40.4460   46.7260   56.2100 C.3   166  GLU166      0.1567
     80  C         41.1800   47.7640   57.0520 C.2   166  GLU166      0.2260
     81  O         40.7750   48.0600   58.1820 O.2   166  GLU166     -0.2867
     82  CB        41.2160   45.4050   56.2570 C.3   166  GLU166      0.0388
     83  CG        40.3150   44.2020   56.3280 C.3   166  GLU166      0.1160
     84  CD        39.3600   44.3090   57.4980 C.2   166  GLU166      0.3649
     85  OE1       39.8260   44.2970   58.6570 O.co2 166  GLU166     -0.2457
     86  OE2       38.1500   44.4200   57.2520 O.co2 166  GLU166     -0.2457
     87  N         44.9270   42.7150   66.6600 N.3   203  ARG203     -0.1245
     88  CA        45.8840   43.3510   65.7630 C.3   203  ARG203      0.1563
     89  C         46.4980   44.5530   66.4590 C.2   203  ARG203      0.2260
     90  O         45.9210   45.0980   67.3990 O.2   203  ARG203     -0.2867
     91  CB        45.1990   43.8490   64.4850 C.3   203  ARG203      0.0307
     92  CG        44.7950   42.7750   63.4990 C.3   203  ARG203      0.0489
     93  CD        44.3370   43.4150   62.1950 C.3   203  ARG203      0.2205
     94  NE        43.0700   44.1370   62.3180 N.pl3 203  ARG203     -0.0865
     95  CZ        41.8830   43.5460   62.4000 C.cat 203  ARG203      0.5346
     96  NH1       41.7980   42.2210   62.3800 N.pl3 203  ARG203      0.1354
     97  NH2       40.7770   44.2780   62.4730 N.pl3 203  ARG203      0.1354
     98  N         43.1360   40.8600   55.9560 N.3   231  HIS231     -0.1241
     99  CA        43.3150   41.1670   57.3740 C.3   231  HIS231      0.1621
    100  C         44.7750   41.0450   57.7800 C.2   231  HIS231      0.2264
    101  O         45.1370   41.3150   58.9240 O.2   231  HIS231     -0.2867
    102  CB        42.4790   40.2380   58.2570 C.3   231  HIS231      0.0745
    103  CG        41.0040   40.3800   58.0560 C.ar  231  HIS231      0.0817
    104  ND1       40.2980   39.6190   57.1490 N.ar  231  HIS231     -0.2268
    105  CD2       40.1040   41.2130   58.6300 C.ar  231  HIS231      0.1154
    106  CE1       39.0270   39.9780   57.1730 C.ar  231  HIS231      0.1986
    107  NE2       38.8830   40.9440   58.0620 N.ar  231  HIS231     -0.2212
@<TRIPOS>BOND
     1    66    67    1
     2    68    69    2
     3    68    67    1
     4    67    70    1
     5    70    71    1
     6    71    73   ar
     7    71    72   ar
     8    73    75   ar
     9    72    74   ar
    10    75    76   ar
    11    74    76   ar
    12    59    58    2
    13    76    77    1
    14    78    79    1
    15    58    57    1
    16    98    99    1
    17    62    64   ar
    18    62    61   ar
    19    79    82    1
    20    79    80    1
    21    82    83    1
    22    57    60    1
    23    57    56    1
    24    83    84    1
    25    64    65   ar
    26    60    61    1
    27    61    63   ar
    28    80    81    2
    29   104   106   ar
    30   104   103   ar
    31   106   107   ar
    32    86    84   ar
    33    99   100    1
    34    99   102    1
    35    84    85   ar
    36    65    63   ar
    37   100   101    2
    38   103   102    1
    39   103   105   ar
    40   107   105   ar
    41    33    35   ar
    42    33    31   ar
    43    35    36   ar
    44    50    49    2
    45    30    31    1
    46    30    27    1
    47    31    32   ar
    48    36    34   ar
    49    28    27    1
    50    28    29    2
    51    46    45   ar
    52    46    44   ar
    53    40    39    2
    54    27    26    1
    55    54    53   ar
    56    32    34   ar
    57    49    48    1
    58    45    43   ar
    59    12    11    1
    60    44    42   ar
    61    20    18   am
    62    48    47    1
    63    48    51    1
    64    39    47   am
    65    39    38    1
    66    43    42   ar
    67    53    55   ar
    68    53    52    1
    69    26    23   am
    70    24    23    2
    71    42    41    1
    72    19    18    2
    73    51    52    1
    74    18    17    1
    75    93    94    1
    76    93    92    1
    77    94    95    2
    78    11     9   ar
    79    11    10   ar
    80    23    22    1
    81    96    95    1
    82    95    97    1
    83    38    41    1
    84    38    37    1
    85     9     7   ar
    86    10     8   ar
    87    17    14    1
    88    92    91    1
    89    22    21    1
    90    22    25    1
    91    21    15   am
    92     7     6   ar
    93    91    88    1
    94     8     6   ar
    95    14    15    1
    96    14    13    1
    97    15    16    2
    98     6     5    1
    99    88    89    1
   100    88    87    1
   101     5     2    1
   102    89    90    2
   103     2     3    1
   104     2     1    1
   105     3     4    2
