@<TRIPOS>MOLECULE
tmp/1kkrB00.pdb
 135 125 0 0 0
SMALL
GASTEIGER

@<TRIPOS>ATOM
      1  N        -18.2880 -153.0560  -81.8490 N.3    71  VAL71      -0.1231
      2  CA       -17.8600 -153.6800  -80.6230 C.3    71  VAL71       0.1692
      3  C        -16.9110 -152.8080  -79.8010 C.2    71  VAL71       0.2591
      4  O        -16.4350 -151.7840  -80.2720 O.2    71  VAL71      -0.2718
      5  CB       -17.1930 -155.0050  -80.9170 C.3    71  VAL71       0.0266
      6  CG1      -18.1720 -155.8870  -81.6550 C.3    71  VAL71       0.0020
      7  CG2      -15.8370 -154.7620  -81.7140 C.3    71  VAL71       0.0020
      8  N        -16.6680 -153.2370  -78.5590 N.am   72  GLN72      -0.1979
      9  CA       -15.7910 -152.5450  -77.6120 C.3    72  GLN72       0.1601
     10  C        -14.3330 -152.3890  -78.0980 C.2    72  GLN72       0.2287
     11  O        -13.7150 -151.3410  -77.9680 O.2    72  GLN72      -0.2864
     12  CB       -15.8280 -153.2670  -76.2320 C.3    72  GLN72       0.0394
     13  CG       -14.8400 -152.6680  -75.2070 C.3    72  GLN72       0.0908
     14  CD       -14.7360 -153.4370  -73.8440 C.2    72  GLN72       0.2608
     15  OE1      -15.5410 -154.3210  -73.5400 O.2    72  GLN72      -0.2717
     16  NE2      -13.7390 -153.0670  -73.0380 N.am   72  GLN72      -0.0878
     17  N        -24.7230 -160.9970  -69.1480 N.3   171  GLN171     -0.1245
     18  CA       -23.2940 -160.8480  -69.0250 C.3   171  GLN171      0.1566
     19  C        -23.0020 -159.8960  -67.8860 C.2   171  GLN171      0.2260
     20  O        -23.6280 -158.8710  -67.7200 O.2   171  GLN171     -0.2867
     21  CB       -22.6360 -160.4730  -70.3420 C.3   171  GLN171      0.0367
     22  CG       -22.6600 -159.0120  -70.6870 C.3   171  GLN171      0.0905
     23  CD       -21.7680 -158.6970  -71.8830 C.2   171  GLN171      0.2608
     24  OE1      -20.6230 -159.1700  -71.9600 O.2   171  GLN171     -0.2717
     25  NE2      -22.2850 -157.9080  -72.8220 N.am  171  GLN171     -0.0878
     26  N        -21.6800 -165.1680  -67.9730 N.3   192  HIS192     -0.1241
     27  CA       -20.5230 -164.7360  -68.7600 C.3   192  HIS192      0.1621
     28  C        -19.2240 -164.6890  -67.9270 C.2   192  HIS192      0.2264
     29  O        -18.2790 -165.4100  -68.2260 O.2   192  HIS192     -0.2867
     30  CB       -20.7700 -163.4420  -69.5510 C.3   192  HIS192      0.0745
     31  CG       -19.6470 -163.1080  -70.4840 C.ar  192  HIS192      0.0817
     32  ND1      -18.4550 -162.5770  -70.0430 N.ar  192  HIS192     -0.2268
     33  CD2      -19.5370 -163.2090  -71.8290 C.ar  192  HIS192      0.1154
     34  CE1      -17.6550 -162.3760  -71.0750 C.ar  192  HIS192      0.1986
     35  NE2      -18.2970 -162.7360  -72.1740 N.ar  192  HIS192     -0.2212
     36  N        -16.7220 -162.7740  -67.6230 N.3   194  LEU194     -0.1245
     37  CA       -15.5210 -162.1180  -68.0920 C.3   194  LEU194      0.1561
     38  C        -14.2500 -162.7610  -67.4610 C.2   194  LEU194      0.2260
     39  O        -13.4670 -162.0690  -66.8010 O.2   194  LEU194     -0.2867
     40  CB       -15.5710 -160.6190  -67.7180 C.3   194  LEU194      0.0270
     41  CG       -14.6360 -159.6880  -68.4910 C.3   194  LEU194      0.0019
     42  CD1      -14.8880 -159.8240  -69.9930 C.3   194  LEU194      0.0001
     43  CD2      -14.7540 -158.2250  -68.0680 C.3   194  LEU194      0.0001
     44  N        -17.3420 -167.2370  -70.4610 N.3   236  ASP236     -0.1239
     45  CA       -16.4380 -166.9020  -71.5520 C.3   236  ASP236      0.1674
     46  C        -15.0680 -166.7330  -70.9080 C.2   236  ASP236      0.2266
     47  O        -14.8900 -165.9410  -69.9820 O.2   236  ASP236     -0.2867
     48  CB       -16.9400 -165.5770  -72.1820 C.3   236  ASP236      0.1410
     49  CG       -16.2290 -165.1810  -73.4240 C.2   236  ASP236      0.3668
     50  OD1      -15.0870 -165.6230  -73.6680 O.co2 236  ASP236     -0.2456
     51  OD2      -16.7720 -164.3870  -74.2310 O.co2 236  ASP236     -0.2456
     52  N        -12.2320 -166.1940  -72.7590 N.3   238  TYR238     -0.1241
     53  CA       -11.4110 -165.3980  -73.6810 C.3   238  TYR238      0.1605
     54  C        -10.0420 -166.0070  -73.9680 C.2   238  TYR238      0.2264
     55  O         -9.0050 -165.3620  -73.8030 O.2   238  TYR238     -0.2867
     56  CB       -11.1680 -164.0110  -73.1090 C.3   238  TYR238      0.0534
     57  CG       -12.1700 -162.9050  -73.3190 C.ar  238  TYR238     -0.0201
     58  CD1      -13.4390 -162.8700  -72.6540 C.ar  238  TYR238     -0.0009
     59  CD2      -11.8120 -161.8210  -74.1030 C.ar  238  TYR238     -0.0009
     60  CE1      -14.3620 -161.7580  -72.8520 C.ar  238  TYR238      0.0417
     61  CE2      -12.6620 -160.7160  -74.2770 C.ar  238  TYR238      0.0417
     62  CZ       -13.9310 -160.6610  -73.6610 C.ar  238  TYR238      0.1957
     63  OH       -14.6980 -159.5020  -73.9120 O.3   238  TYR238     -0.2866
     64  N        -17.2350 -170.6030  -73.3470 N.3   270  GLU270     -0.1245
     65  CA       -17.0680 -169.8850  -74.5750 C.3   270  GLU270      0.1567
     66  C        -15.6360 -169.4600  -74.7830 C.2   270  GLU270      0.2260
     67  O        -15.0210 -169.0160  -73.8550 O.2   270  GLU270     -0.2867
     68  CB       -17.9540 -168.6000  -74.5840 C.3   270  GLU270      0.0388
     69  CG       -17.7370 -167.6630  -75.7860 C.3   270  GLU270      0.1160
     70  CD       -18.7310 -166.4670  -75.8620 C.2   270  GLU270      0.3649
     71  OE1      -19.8410 -166.4750  -75.2630 O.co2 270  GLU270     -0.2457
     72  OE2      -18.3830 -165.4780  -76.5210 O.co2 270  GLU270     -0.2457
     73  N        -16.2240 -167.8600  -80.7280 N.3   303  ASP303     -0.1239
     74  CA       -16.4670 -166.4260  -80.7950 C.3   303  ASP303      0.1674
     75  C        -15.4140 -165.7720  -81.7100 C.2   303  ASP303      0.2266
     76  O        -15.6480 -165.4940  -82.8990 O.2   303  ASP303     -0.2867
     77  CB       -16.4400 -165.8340  -79.3880 C.3   303  ASP303      0.1410
     78  CG       -16.8080 -164.3560  -79.3490 C.2   303  ASP303      0.3668
     79  OD1      -17.1890 -163.7990  -80.3960 O.co2 303  ASP303     -0.2456
     80  OD2      -16.7610 -163.6820  -78.2960 O.co2 303  ASP303     -0.2456
     81  N        -21.0750 -167.9740  -81.5290 N.3   324  GLN324     -0.1245
     82  CA       -21.5630 -166.6100  -81.3160 C.3   324  GLN324      0.1566
     83  C        -21.6230 -165.8460  -82.6090 C.2   324  GLN324      0.2260
     84  O        -20.6090 -165.5470  -83.1710 O.2   324  GLN324     -0.2867
     85  CB       -20.7320 -165.7470  -80.3730 C.3   324  GLN324      0.0367
     86  CG       -21.6390 -164.4900  -79.9870 C.3   324  GLN324      0.0905
     87  CD       -21.0600 -163.4580  -79.0820 C.2   324  GLN324      0.2608
     88  OE1      -21.5090 -162.2590  -79.1240 O.2   324  GLN324     -0.2717
     89  NE2      -20.0940 -163.8670  -78.2430 N.am  324  GLN324     -0.0878
     90  N        -21.9190 -162.6070  -83.5630 N.3   326  LYS326     -0.1245
     91  CA       -21.7000 -161.3520  -82.8370 C.3   326  LYS326      0.1561
     92  C        -22.3000 -160.2580  -83.7180 C.2   326  LYS326      0.2260
     93  O        -21.6320 -159.7690  -84.6080 O.2   326  LYS326     -0.2867
     94  CB       -20.2240 -161.1150  -82.5360 C.3   326  LYS326      0.0271
     95  CG       -19.9610 -159.9400  -81.5250 C.3   326  LYS326      0.0035
     96  CD       -18.5340 -159.9940  -80.9900 C.3   326  LYS326      0.0206
     97  CE       -18.4200 -161.0030  -79.8100 C.3   326  LYS326      0.1093
     98  NZ       -17.1320 -161.0640  -79.0200 N.3   326  LYS326     -0.1314
     99  N        -26.0920 -168.7710  -81.2860 N.3   350  TYR350     -0.1241
    100  CA       -26.1070 -167.8200  -80.1660 C.3   350  TYR350      0.1605
    101  C        -26.0570 -166.4260  -80.7820 C.2   350  TYR350      0.2264
    102  O        -25.0230 -165.9860  -81.3080 O.2   350  TYR350     -0.2867
    103  CB       -24.9440 -168.0530  -79.1930 C.3   350  TYR350      0.0534
    104  CG       -24.4900 -166.9060  -78.2930 C.ar  350  TYR350     -0.0201
    105  CD1      -25.3700 -165.9750  -77.8200 C.ar  350  TYR350     -0.0009
    106  CD2      -23.1400 -166.8040  -77.8800 C.ar  350  TYR350     -0.0009
    107  CE1      -24.9510 -164.9630  -76.9970 C.ar  350  TYR350      0.0417
    108  CE2      -22.7020 -165.7550  -77.0290 C.ar  350  TYR350      0.0417
    109  CZ       -23.6250 -164.8300  -76.6340 C.ar  350  TYR350      0.1957
    110  OH       -23.2950 -163.7840  -75.8370 O.3   350  TYR350     -0.2866
    111  N        -23.7530 -160.1370  -79.6230 N.3   353  GLY353     -0.1210
    112  CA       -23.6410 -158.7070  -79.8440 C.3   353  GLY353      0.1956
    113  C        -22.6040 -158.1370  -78.9100 C.2   353  GLY353      0.2613
    114  O        -21.6550 -158.8320  -78.5180 O.2   353  GLY353     -0.2717
    115  N        -22.7630 -156.8790  -78.5340 N.am  354  THR354     -0.1938
    116  CA       -21.8380 -156.2950  -77.5980 C.3   354  THR354      0.2028
    117  C        -22.4510 -155.3910  -76.5460 C.2   354  THR354      0.2642
    118  O        -23.5380 -154.8400  -76.7560 O.2   354  THR354     -0.2714
    119  CB       -20.8280 -155.5430  -78.4120 C.3   354  THR354      0.1808
    120  OG1      -19.9300 -154.8590  -77.5620 O.3   354  THR354     -0.2208
    121  CG2      -21.4390 -154.4040  -79.1990 C.3   354  THR354      0.0379
    122  N        -21.7670 -155.2410  -75.4060 N.am  355  CYS355     -0.1967
    123  CA       -22.1670 -154.2220  -74.4160 C.3   355  CYS355      0.1712
    124  C        -22.1230 -152.8270  -75.0610 C.2   355  CYS355      0.2296
    125  O        -22.8160 -151.8990  -74.6420 O.2   355  CYS355     -0.2864
    126  CB       -21.2300 -154.1920  -73.1840 C.3   355  CYS355      0.0983
    127  SG       -19.4820 -153.8830  -73.5570 S.3   355  CYS355     -0.0798
    128  N        -28.1380 -162.6190  -76.6270 N.3   376  LEU376     -0.1245
    129  CA       -27.4840 -161.7990  -75.6390 C.3   376  LEU376      0.1561
    130  C        -28.3610 -160.6340  -75.0720 C.2   376  LEU376      0.2260
    131  O        -28.9700 -159.9120  -75.8170 O.2   376  LEU376     -0.2867
    132  CB       -26.1590 -161.2720  -76.2230 C.3   376  LEU376      0.0270
    133  CG       -25.3870 -160.2800  -75.3270 C.3   376  LEU376      0.0019
    134  CD1      -24.8670 -160.9690  -74.1080 C.3   376  LEU376      0.0001
    135  CD2      -24.1870 -159.6560  -76.0090 C.3   376  LEU376      0.0001
@<TRIPOS>BOND
     1    93    92    2
     2    92    91    1
     3    90    91    1
     4    84    83    2
     5    76    75    2
     6    91    94    1
     7    83    82    1
     8    94    95    1
     9     1     2    1
    10     7     5    1
    11    75    74    1
    12     6     5    1
    13    81    82    1
    14    95    96    1
    15    82    85    1
    16   102   101    2
    17    99   100    1
    18    96    97    1
    19     5     2    1
    20    74    73    1
    21    74    77    1
    22   101   100    1
    23     2     3    1
    24    79    78   ar
    25    85    86    1
    26     4     3    2
    27   100   103    1
    28    86    87    1
    29   112   111    1
    30   112   113    1
    31    97    98    1
    32     3     8   am
    33    77    78    1
    34    78    80   ar
    35   121   119    1
    36   103   104    1
    37    88    87    2
    38    87    89   am
    39   113   115   am
    40   113   114    2
    41     8     9    1
    42   115   116    1
    43   119   116    1
    44   119   120    1
    45   104   106   ar
    46   104   105   ar
    47    10    11    2
    48    10     9    1
    49   106   108   ar
    50   105   107   ar
    51     9    12    1
    52   116   117    1
    53   108   109   ar
    54   107   109   ar
    55   118   117    2
    56   109   110    1
    57   128   129    1
    58   117   122   am
    59    72    70   ar
    60    12    13    1
    61   132   129    1
    62   132   133    1
    63   135   133    1
    64    70    69    1
    65    70    71   ar
    66   131   130    2
    67    69    68    1
    68   129   130    1
    69   122   123    1
    70   133   134    1
    71    13    14    1
    72   124   125    2
    73   124   123    1
    74    66    65    1
    75    66    67    2
    76    68    65    1
    77    65    64    1
    78   123   126    1
    79    61    59   ar
    80    61    62   ar
    81    51    49   ar
    82    59    57   ar
    83    54    55    2
    84    54    53    1
    85    63    62    1
    86    14    15    2
    87    14    16   am
    88    53    56    1
    89    53    52    1
    90    50    49   ar
    91    62    60   ar
    92   127   126    1
    93    49    48    1
    94    57    56    1
    95    57    58   ar
    96    60    58   ar
    97    25    23   am
    98    48    45    1
    99    35    33   ar
   100    35    34   ar
   101    24    23    2
   102    23    22    1
   103    33    31   ar
   104    45    46    1
   105    45    44    1
   106    34    32   ar
   107    46    47    2
   108    22    21    1
   109    31    32   ar
   110    31    30    1
   111    21    18    1
   112    42    41    1
   113    30    27    1
   114    17    18    1
   115    18    19    1
   116    27    26    1
   117    27    28    1
   118    41    43    1
   119    41    40    1
   120    29    28    2
   121    37    40    1
   122    37    36    1
   123    37    38    1
   124    19    20    2
   125    38    39    2
