@<TRIPOS>MOLECULE
tmp/1kktB01.pdb
 148 138 0 0 0
SMALL
GASTEIGER

@<TRIPOS>ATOM
      1  N         20.1070   45.0790  -19.9030 N.3   274  ARG274     -0.1245
      2  CA        19.6660   44.4830  -18.6480 C.3   274  ARG274      0.1563
      3  C         20.2830   45.2220  -17.4640 C.2   274  ARG274      0.2260
      4  O         21.1970   44.7160  -16.8120 O.2   274  ARG274     -0.2867
      5  CB        20.0670   43.0070  -18.6120 C.3   274  ARG274      0.0307
      6  CG        19.3800   42.1500  -19.6670 C.3   274  ARG274      0.0489
      7  CD        17.9770   41.7800  -19.2350 C.3   274  ARG274      0.2205
      8  NE        18.0080   40.9770  -18.0170 N.pl3 274  ARG274     -0.0865
      9  CZ        16.9340   40.6290  -17.3180 C.cat 274  ARG274      0.5346
     10  NH1       15.7270   41.0140  -17.7130 N.pl3 274  ARG274      0.1354
     11  NH2       17.0680   39.9010  -16.2180 N.pl3 274  ARG274      0.1354
     12  N         19.1080   45.7020  -14.6510 N.3   276  ASP276     -0.1225
     13  CA        18.7880   44.9810  -13.4270 C.3   276  ASP276      0.1805
     14  C         19.8050   43.8910  -13.0860 C.2   276  ASP276      0.2597
     15  O         19.5940   43.1010  -12.1650 O.2   276  ASP276     -0.2718
     16  CB        17.3830   44.3770  -13.5400 C.3   276  ASP276      0.1424
     17  CG        17.1950   43.5640  -14.8060 C.2   276  ASP276      0.3668
     18  OD1       17.5260   44.0710  -15.9010 O.co2 276  ASP276     -0.2456
     19  OD2       16.7040   42.4200  -14.7090 O.co2 276  ASP276     -0.2456
     20  N         20.9060   43.8510  -13.8310 N.am  277  LEU277     -0.1979
     21  CA        21.9540   42.8660  -13.5900 C.3   277  LEU277      0.1596
     22  C         23.2600   43.5700  -13.2500 C.2   277  LEU277      0.2287
     23  O         23.5610   44.6410  -13.7820 O.2   277  LEU277     -0.2864
     24  CB        22.1520   41.9720  -14.8190 C.3   277  LEU277      0.0297
     25  CG        21.0050   41.0310  -15.1980 C.3   277  LEU277      0.0022
     26  CD1       21.4050   40.2130  -16.4130 C.3   277  LEU277      0.0001
     27  CD2       20.6760   40.1080  -14.0340 C.3   277  LEU277      0.0001
     28  N         25.3700   44.8620    6.3070 N.3   313  GLN313     -0.1245
     29  CA        24.2600   44.5270    5.4230 C.3   313  GLN313      0.1566
     30  C         24.4170   45.1210    4.0330 C.2   313  GLN313      0.2260
     31  O         23.8530   44.6090    3.0700 O.2   313  GLN313     -0.2867
     32  CB        22.9380   44.9990    6.0320 C.3   313  GLN313      0.0367
     33  CG        21.7180   44.6560    5.1930 C.3   313  GLN313      0.0905
     34  CD        21.5660   43.1630    4.9720 C.2   313  GLN313      0.2608
     35  OE1       21.3260   42.4040    5.9120 O.2   313  GLN313     -0.2717
     36  NE2       21.7140   42.7330    3.7240 N.am  313  GLN313     -0.0878
     37  N         26.2820   42.4350    2.1400 N.3   316  ILE316     -0.1231
     38  CA        25.4630   41.2520    1.9020 C.3   316  ILE316      0.1692
     39  C         24.4940   41.4740    0.7500 C.2   316  ILE316      0.2592
     40  O         24.2780   40.5790   -0.0640 O.2   316  ILE316     -0.2718
     41  CB        24.6600   40.8520    3.1600 C.3   316  ILE316      0.0266
     42  CG1       25.6220   40.4250    4.2710 C.3   316  ILE316      0.0019
     43  CG2       23.6940   39.7160    2.8250 C.3   316  ILE316      0.0020
     44  CD1       24.9380   39.9630    5.5420 C.3   316  ILE316      0.0001
     45  N         23.9160   42.6680    0.6780 N.am  317  ASP317     -0.1974
     46  CA        22.9710   42.9810   -0.3860 C.3   317  ASP317      0.1709
     47  C         23.6610   43.0850   -1.7410 C.2   317  ASP317      0.2293
     48  O         23.0730   42.7540   -2.7690 O.2   317  ASP317     -0.2864
     49  CB        22.2350   44.2870   -0.0810 C.3   317  ASP317      0.1436
     50  CG        21.4180   44.2090    1.1950 C.2   317  ASP317      0.3671
     51  OD1       20.6360   43.2470    1.3510 O.co2 317  ASP317     -0.2456
     52  OD2       21.5560   45.1150    2.0410 O.co2 317  ASP317     -0.2456
     53  N         24.6510   39.6330   -3.0440 N.3   320  LEU320     -0.1245
     54  CA        23.4780   38.9570   -3.5800 C.3   320  LEU320      0.1561
     55  C         23.2030   39.4150   -5.0080 C.2   320  LEU320      0.2260
     56  O         22.6540   38.6640   -5.8110 O.2   320  LEU320     -0.2867
     57  CB        22.2570   39.2220   -2.6940 C.3   320  LEU320      0.0270
     58  CG        22.2260   38.4730   -1.3580 C.3   320  LEU320      0.0019
     59  CD1       20.9680   38.8460   -0.5790 C.3   320  LEU320      0.0001
     60  CD2       22.2590   36.9730   -1.6160 C.3   320  LEU320      0.0001
     61  N         23.1300   37.0460   -8.3910 N.3   324  ASP324     -0.1239
     62  CA        22.0670   37.0030   -9.3920 C.3   324  ASP324      0.1674
     63  C         22.6810   37.1600  -10.7730 C.2   324  ASP324      0.2266
     64  O         22.2830   36.4870  -11.7200 O.2   324  ASP324     -0.2867
     65  CB        21.0590   38.1290   -9.1670 C.3   324  ASP324      0.1410
     66  CG        20.4710   38.1140   -7.7790 C.2   324  ASP324      0.3668
     67  OD1       20.0570   37.0300   -7.3180 O.co2 324  ASP324     -0.2456
     68  OD2       20.4150   39.1910   -7.1510 O.co2 324  ASP324     -0.2456
     69  N         24.1020   33.9870  -11.7460 N.3   327  GLU327     -0.1231
     70  CA        23.0220   33.0240  -11.9320 C.3   327  GLU327      0.1699
     71  C         22.3900   33.2710  -13.2970 C.2   327  GLU327      0.2592
     72  O         21.8420   32.3570  -13.9170 O.2   327  GLU327     -0.2718
     73  CB        21.9760   33.1830  -10.8260 C.3   327  GLU327      0.0402
     74  CG        20.6060   32.5610  -11.1170 C.3   327  GLU327      0.1161
     75  CD        20.6670   31.0810  -11.4470 C.2   327  GLU327      0.3649
     76  OE1       21.6090   30.4010  -10.9910 O.co2 327  GLU327     -0.2457
     77  OE2       19.7560   30.5930  -12.1510 O.co2 327  GLU327     -0.2457
     78  N         22.4830   34.5130  -13.7620 N.am  328  ALA328     -0.1980
     79  CA        21.9270   34.8840  -15.0550 C.3   328  ALA328      0.1597
     80  C         22.7050   34.2340  -16.1910 C.2   328  ALA328      0.2287
     81  O         22.1170   33.7810  -17.1740 O.2   328  ALA328     -0.2864
     82  CB        21.9390   36.4020  -15.2190 C.3   328  ALA328      0.0319
     83  N         21.3320   30.2900  -16.1790 N.3   331  ASN331     -0.1240
     84  CA        20.0140   29.9220  -16.6930 C.3   331  ASN331      0.1653
     85  C         19.6460   30.5760  -18.0240 C.2   331  ASN331      0.2266
     86  O         18.5170   30.4440  -18.4880 O.2   331  ASN331     -0.2867
     87  CB        18.9030   30.1800  -15.6490 C.3   331  ASN331      0.1155
     88  CG        18.7400   31.6510  -15.2860 C.2   331  ASN331      0.2627
     89  OD1       18.8600   32.5270  -16.1400 O.2   331  ASN331     -0.2716
     90  ND2       18.4350   31.9120  -14.0130 N.am  331  ASN331     -0.0877
     91  N         21.5820   33.7810    3.9670 N.3   386  THR386     -0.1218
     92  CA        20.1810   34.2090    3.9680 C.3   386  THR386      0.1862
     93  C         19.2030   33.1890    4.5380 C.2   386  THR386      0.2287
     94  O         18.2460   33.5500    5.2230 O.2   386  THR386     -0.2866
     95  CB        19.6840   34.5350    2.5510 C.3   386  THR386      0.1770
     96  OG1       19.6760   33.3330    1.7720 O.3   386  THR386     -0.2211
     97  CG2       20.5730   35.5700    1.8890 C.3   386  THR386      0.0375
     98  N         17.4330   31.5110    2.6590 N.3   388  LYS388     -0.1245
     99  CA        16.4830   31.4030    1.5520 C.3   388  LYS388      0.1561
    100  C         16.6980   30.0940    0.8020 C.2   388  LYS388      0.2260
    101  O         17.8310   29.7090    0.5100 O.2   388  LYS388     -0.2867
    102  CB        16.6640   32.5780    0.5920 C.3   388  LYS388      0.0271
    103  CG        16.3320   33.9400    1.1880 C.3   388  LYS388      0.0035
    104  CD        14.8370   34.0960    1.4300 C.3   388  LYS388      0.0206
    105  CE        14.4860   35.5240    1.8250 C.3   388  LYS388      0.1093
    106  NZ        13.0090   35.7520    1.8730 N.3   388  LYS388     -0.1314
    107  N         15.7470   29.4650   -2.2760 N.3   390  ILE390     -0.1231
    108  CA        15.9900   29.6910   -3.6990 C.3   390  ILE390      0.1692
    109  C         17.4500   29.5020   -4.1140 C.2   390  ILE390      0.2592
    110  O         17.7310   29.0530   -5.2300 O.2   390  ILE390     -0.2718
    111  CB        15.5260   31.1050   -4.1410 C.3   390  ILE390      0.0266
    112  CG1       15.7200   31.2600   -5.6520 C.3   390  ILE390      0.0019
    113  CG2       16.2950   32.1760   -3.3850 C.3   390  ILE390      0.0020
    114  CD1       15.3390   32.6230   -6.2000 C.3   390  ILE390      0.0001
    115  N         18.3800   29.8460   -3.2270 N.am  391  TYR391     -0.1976
    116  CA        19.7960   29.6950   -3.5380 C.3   391  TYR391      0.1639
    117  C         20.1840   28.2260   -3.5360 C.2   391  TYR391      0.2290
    118  O         21.0550   27.8060   -4.2970 O.2   391  TYR391     -0.2864
    119  CB        20.6410   30.4830   -2.5390 C.3   391  TYR391      0.0560
    120  CG        20.2910   31.9480   -2.5460 C.ar  391  TYR391     -0.0198
    121  CD1       19.6580   32.5430   -1.4550 C.ar  391  TYR391     -0.0009
    122  CD2       20.5240   32.7290   -3.6780 C.ar  391  TYR391     -0.0009
    123  CE1       19.2620   33.8800   -1.4970 C.ar  391  TYR391      0.0417
    124  CE2       20.1330   34.0600   -3.7310 C.ar  391  TYR391      0.0417
    125  CZ        19.5020   34.6280   -2.6410 C.ar  391  TYR391      0.1957
    126  OH        19.0970   35.9380   -2.7080 O.3   391  TYR391     -0.2866
    127  N         19.1430   26.8650   -6.8960 N.3   394  TRP394     -0.1241
    128  CA        20.0470   27.2370   -7.9770 C.3   394  TRP394      0.1605
    129  C         21.2850   26.3380   -7.9880 C.2   394  TRP394      0.2264
    130  O         21.8950   26.1180   -9.0360 O.2   394  TRP394     -0.2867
    131  CB        20.4540   28.7120   -7.8560 C.3   394  TRP394      0.0550
    132  CG        19.3340   29.6710   -8.1780 C.ar  394  TRP394      0.0003
    133  CD1       18.0610   29.3500   -8.5640 C.ar  394  TRP394      0.0946
    134  CD2       19.3890   31.1050   -8.1370 C.ar  394  TRP394      0.0152
    135  NE1       17.3240   30.4920   -8.7640 N.ar  394  TRP394     -0.2442
    136  CE2       18.1140   31.5830   -8.5100 C.ar  394  TRP394      0.0810
    137  CE3       20.3920   32.0320   -7.8210 C.ar  394  TRP394      0.0012
    138  CZ2       17.8140   32.9510   -8.5760 C.ar  394  TRP394      0.0191
    139  CZ3       20.0910   33.3960   -7.8880 C.ar  394  TRP394      0.0001
    140  CH2       18.8130   33.8370   -8.2630 C.ar  394  TRP394      0.0015
    141  N         19.9630   22.9270   -9.5100 N.3   397  ASN397     -0.1240
    142  CA        19.7390   23.0620  -10.9430 C.3   397  ASN397      0.1653
    143  C         21.0640   23.0080  -11.6970 C.2   397  ASN397      0.2266
    144  O         21.1530   22.4190  -12.7700 O.2   397  ASN397     -0.2867
    145  CB        19.0240   24.3840  -11.2370 C.3   397  ASN397      0.1155
    146  CG        17.5880   24.3900  -10.7410 C.2   397  ASN397      0.2627
    147  OD1       16.9450   25.4430  -10.6730 O.2   397  ASN397     -0.2716
    148  ND2       17.0760   23.2100  -10.3960 N.am  397  ASN397     -0.0877
@<TRIPOS>BOND
     1     1     2    1
     2     6     7    1
     3     6     5    1
     4     7     8    1
     5     2     5    1
     6     2     3    1
     7    86    85    2
     8    85    84    1
     9     8     9    2
    10    10     9    1
    11     3     4    2
    12     9    11    1
    13    81    80    2
    14    84    83    1
    15    84    87    1
    16    26    25    1
    17    80    79    1
    18    89    88    2
    19    18    17   ar
    20    87    88    1
    21    88    90   am
    22    82    79    1
    23    25    24    1
    24    25    27    1
    25    79    78    1
    26    24    21    1
    27    17    19   ar
    28    17    16    1
    29    12    13    1
    30    72    71    2
    31    20    21    1
    32    20    14   am
    33    23    22    2
    34    78    71   am
    35    21    22    1
    36    16    13    1
    37    13    14    1
    38    71    70    1
    39    14    15    2
    40   144   143    2
    41    77    75   ar
    42    70    69    1
    43    70    73    1
    44    64    63    2
    45   143   142    1
    46    75    74    1
    47    75    76   ar
    48   145   142    1
    49   145   146    1
    50    74    73    1
    51   142   141    1
    52    63    62    1
    53   146   147    2
    54   146   148   am
    55    62    65    1
    56    62    61    1
    57    65    66    1
    58   130   129    2
    59   135   133   ar
    60   135   136   ar
    61   138   136   ar
    62   138   140   ar
    63   133   132   ar
    64   136   134   ar
    65   140   139   ar
    66   132   134   ar
    67   132   131    1
    68   134   137   ar
    69   129   128    1
    70   128   131    1
    71   128   127    1
    72   139   137   ar
    73    66    67   ar
    74    66    68   ar
    75   114   112    1
    76    56    55    2
    77   112   111    1
    78   110   109    2
    79    55    54    1
    80   118   117    2
    81   111   108    1
    82   111   113    1
    83   109   108    1
    84   109   115   am
    85   124   122   ar
    86   124   125   ar
    87   108   107    1
    88   122   120   ar
    89    54    53    1
    90    54    57    1
    91   116   117    1
    92   116   115    1
    93   116   119    1
    94    48    47    2
    95   126   125    1
    96    57    58    1
    97   125   123   ar
    98   120   119    1
    99   120   121   ar
   100    47    46    1
   101    60    58    1
   102   123   121   ar
   103    58    59    1
   104    46    49    1
   105    46    45    1
   106    49    50    1
   107    40    39    2
   108   101   100    2
   109   102   103    1
   110   102    99    1
   111    45    39   am
   112    39    38    1
   113   100    99    1
   114   103   104    1
   115    50    51   ar
   116    50    52   ar
   117   104   105    1
   118    99    98    1
   119    96    95    1
   120   105   106    1
   121    97    95    1
   122    38    37    1
   123    38    41    1
   124    95    92    1
   125    43    41    1
   126    31    30    2
   127    41    42    1
   128    36    34   am
   129    91    92    1
   130    92    93    1
   131    30    29    1
   132    42    44    1
   133    93    94    2
   134    34    33    1
   135    34    35    2
   136    33    32    1
   137    29    32    1
   138    29    28    1
