@<TRIPOS>MOLECULE
tmp/1kl2A02.pdb
 125 120 0 0 0
SMALL
GASTEIGER

@<TRIPOS>ATOM
      1  N         29.6210   -7.4710   25.1410 N.3   117  LEU117     -0.1231
      2  CA        28.4820   -7.5060   24.2570 C.3   117  LEU117      0.1693
      3  C         27.6000   -8.7350   24.2780 C.2   117  LEU117      0.2592
      4  O         26.3790   -8.6630   24.0650 O.2   117  LEU117     -0.2718
      5  CB        29.0180   -7.3230   22.8120 C.3   117  LEU117      0.0284
      6  CG        28.4440   -6.1040   22.0870 C.3   117  LEU117      0.0019
      7  CD1       26.9520   -6.2540   21.8590 C.3   117  LEU117      0.0001
      8  CD2       28.7790   -4.8400   22.8860 C.3   117  LEU117      0.0001
      9  N         28.2100   -9.9140   24.4640 N.am  118  SER118     -0.1952
     10  CA        27.4310  -11.1500   24.5010 C.3   118  SER118      0.1924
     11  C         27.1220  -11.5460   25.9380 C.2   118  SER118      0.2314
     12  O         26.6360  -12.6400   26.1690 O.2   118  SER118     -0.2863
     13  CB        28.1070  -12.2870   23.7490 C.3   118  SER118      0.2116
     14  OG        29.3940  -12.5430   24.2900 O.3   118  SER118     -0.2180
     15  N         25.6590   -9.0280   27.7890 N.3   120  GLY120     -0.1210
     16  CA        24.5540   -8.1190   27.9540 C.3   120  GLY120      0.1956
     17  C         24.7390   -6.7070   27.4410 C.2   120  GLY120      0.2612
     18  O         23.7490   -5.9660   27.3500 O.2   120  GLY120     -0.2717
     19  N         25.9500   -6.2650   27.1540 N.am  121  GLY121     -0.1942
     20  CA        26.2230   -4.9120   26.7080 C.3   121  GLY121      0.2014
     21  C         25.5610   -4.5770   25.3760 C.2   121  GLY121      0.2639
     22  O         25.2930   -5.4460   24.5460 O.2   121  GLY121     -0.2714
     23  N         25.3690   -3.2780   25.1300 N.am  122  HIS122     -0.1959
     24  CA        24.7420   -2.8140   23.9080 C.3   122  HIS122      0.1787
     25  C         25.7280   -2.4840   22.8050 C.2   122  HIS122      0.2620
     26  O         26.8700   -2.0800   23.0420 O.2   122  HIS122     -0.2715
     27  CB        23.8710   -1.5770   24.2080 C.3   122  HIS122      0.0785
     28  CG        23.1650   -1.0510   22.9990 C.ar  122  HIS122      0.0821
     29  ND1       23.5950    0.0630   22.3130 N.ar  122  HIS122     -0.2267
     30  CD2       22.0950   -1.5290   22.3130 C.ar  122  HIS122      0.1154
     31  CE1       22.8010    0.2700   21.2770 C.ar  122  HIS122      0.1986
     32  NE2       21.8860   -0.6850   21.2470 N.ar  122  HIS122     -0.2212
     33  N         25.2540   -2.5210   21.5660 N.am  123  LEU123     -0.1977
     34  CA        26.0090   -2.1500   20.3890 C.3   123  LEU123      0.1596
     35  C         26.8910   -0.9250   20.5880 C.2   123  LEU123      0.2287
     36  O         28.0710   -0.9160   20.2190 O.2   123  LEU123     -0.2864
     37  CB        25.0140   -1.8420   19.2710 C.3   123  LEU123      0.0297
     38  CG        25.1440   -2.4860   17.9090 C.3   123  LEU123      0.0022
     39  CD1       24.9160   -1.4210   16.8250 C.3   123  LEU123      0.0001
     40  CD2       26.4560   -3.2010   17.6740 C.3   123  LEU123      0.0001
     41  N         30.9430   -2.3690   20.3720 N.3   127  SER127     -0.1217
     42  CA        31.0090   -3.2520   19.2050 C.3   127  SER127      0.1889
     43  C         32.0360   -2.6450   18.2440 C.2   127  SER127      0.2288
     44  O         32.0510   -1.4480   17.9680 O.2   127  SER127     -0.2866
     45  CB        29.6760   -3.3820   18.4930 C.3   127  SER127      0.2089
     46  OG        29.8640   -3.7710   17.1300 O.3   127  SER127     -0.2183
     47  N         31.9320   -2.9180   15.1500 N.3   129  VAL129     -0.1245
     48  CA        31.2740   -2.6200   13.8890 C.3   129  VAL129      0.1561
     49  C         30.3080   -1.4440   14.0550 C.2   129  VAL129      0.2260
     50  O         29.5020   -1.1130   13.1920 O.2   129  VAL129     -0.2867
     51  CB        30.5460   -3.8350   13.3050 C.3   129  VAL129      0.0252
     52  CG1       31.5490   -4.9190   12.8900 C.3   129  VAL129      0.0019
     53  CG2       29.5230   -4.4180   14.2670 C.3   129  VAL129      0.0019
     54  N         21.6090   -4.0660   27.3300 N.3   172  SER172     -0.1202
     55  CA        20.5080   -4.4320   26.4820 C.3   172  SER172      0.2020
     56  C         19.8710   -5.7420   26.9480 C.2   172  SER172      0.2618
     57  O         18.6790   -5.9590   26.6990 O.2   172  SER172     -0.2717
     58  CB        21.0190   -4.6290   25.0380 C.3   172  SER172      0.2103
     59  OG        20.8520   -3.4460   24.2740 O.3   172  SER172     -0.2182
     60  N         20.6550   -6.6170   27.5900 N.am  173  ALA173     -0.1979
     61  CA        20.0720   -7.8910   28.0180 C.3   173  ALA173      0.1597
     62  C         20.6050   -8.4470   29.3200 C.2   173  ALA173      0.2287
     63  O         21.0030   -9.6160   29.3940 O.2   173  ALA173     -0.2864
     64  CB        20.1830   -8.9150   26.8940 C.3   173  ALA173      0.0319
     65  N         12.9630  -11.9690   20.1200 N.3   339  ASN339     -0.1225
     66  CA        14.1280  -11.6600   19.3030 C.3   339  ASN339      0.1785
     67  C         15.2550  -12.5740   19.7700 C.2   339  ASN339      0.2597
     68  O         15.3840  -12.7860   20.9650 O.2   339  ASN339     -0.2718
     69  CB        14.4990  -10.2160   19.2000 C.3   339  ASN339      0.1169
     70  CG        15.0990   -9.4600   20.3340 C.2   339  ASN339      0.2627
     71  OD1       14.4590   -8.5700   20.9150 O.2   339  ASN339     -0.2716
     72  ND2       16.3530   -9.7140   20.6970 N.am  339  ASN339     -0.0877
     73  N         15.8780  -13.2070   18.7800 N.am  340  LYS340     -0.1966
     74  CA        17.0240  -14.0710   19.0930 C.3   340  LYS340      0.1728
     75  C         18.0090  -13.1740   19.8490 C.2   340  LYS340      0.2616
     76  O         18.0310  -11.9640   19.6080 O.2   340  LYS340     -0.2715
     77  CB        17.6400  -14.5670   17.7890 C.3   340  LYS340      0.0311
     78  CG        17.9640  -13.4380   16.8190 C.3   340  LYS340      0.0038
     79  CD        18.5150  -13.9510   15.5120 C.3   340  LYS340      0.0206
     80  CE        18.7090  -12.8430   14.4820 C.3   340  LYS340      0.1093
     81  NZ        19.5960  -13.3330   13.3710 N.3   340  LYS340     -0.1314
     82  N         18.7280  -13.7170   20.8040 N.am  341  ASN341     -0.1958
     83  CA        19.6880  -12.9020   21.5490 C.3   341  ASN341      0.1819
     84  C         20.7930  -13.8260   22.0410 C.2   341  ASN341      0.2621
     85  O         20.5070  -14.9250   22.5190 O.2   341  ASN341     -0.2715
     86  CB        19.0300  -12.1670   22.7110 C.3   341  ASN341      0.1195
     87  CG        19.8580  -11.0520   23.3150 C.2   341  ASN341      0.2630
     88  OD1       19.4520   -9.8820   23.2840 O.2   341  ASN341     -0.2716
     89  ND2       21.0170  -11.3680   23.8760 N.am  341  ASN341     -0.0877
     90  N         22.0230  -13.3660   21.8660 N.am  342  THR342     -0.1951
     91  CA        23.1680  -14.1410   22.3470 C.3   342  THR342      0.1897
     92  C         22.9920  -14.3570   23.8490 C.2   342  THR342      0.2313
     93  O         22.1880  -13.7060   24.5080 O.2   342  THR342     -0.2863
     94  CB        24.5110  -13.4500   22.0750 C.3   342  THR342      0.1794
     95  OG1       25.2150  -13.1820   23.3050 O.3   342  THR342     -0.2208
     96  CG2       24.3260  -12.1250   21.3290 C.3   342  THR342      0.0378
     97  N         26.2880  -14.1490   17.1360 N.3   350  PRO350     -0.2102
     98  CA        25.1710  -13.2390   17.1770 C.3   350  PRO350      0.1504
     99  C         24.3890  -13.0730   15.8970 C.2   350  PRO350      0.2575
    100  O         23.9300  -11.9750   15.5350 O.2   350  PRO350     -0.2718
    101  CB        25.8090  -11.8910   17.5580 C.3   350  PRO350      0.0282
    102  CG        27.1750  -11.9900   16.9570 C.3   350  PRO350      0.0208
    103  CD        27.5850  -13.4120   17.2470 C.3   350  PRO350      0.0893
    104  N         24.1870  -14.1650   15.1840 N.am  351  PHE351     -0.1977
    105  CA        23.4120  -14.1590   13.9440 C.3   351  PHE351      0.1639
    106  C         22.5280  -15.4040   13.9690 C.2   351  PHE351      0.2290
    107  O         21.5520  -15.5130   13.2510 O.2   351  PHE351     -0.2864
    108  CB        24.3440  -14.1470   12.7500 C.3   351  PHE351      0.0560
    109  CG        24.6740  -12.7850   12.2090 C.ar  351  PHE351     -0.0200
    110  CD1       25.9350  -12.2260   12.3940 C.ar  351  PHE351     -0.0042
    111  CD2       23.7220  -12.0790   11.4860 C.ar  351  PHE351     -0.0042
    112  CE1       26.2420  -10.9890   11.8560 C.ar  351  PHE351     -0.0003
    113  CE2       24.0240  -10.8400   10.9590 C.ar  351  PHE351     -0.0003
    114  CZ        25.2850  -10.2960   11.1430 C.ar  351  PHE351     -0.0000
    115  N         15.3360  -13.4270   23.9060 N.3   357  ARG357     -0.1245
    116  CA        15.1810  -12.3950   24.9300 C.3   357  ARG357      0.1563
    117  C         13.7140  -11.9990   24.9830 C.2   357  ARG357      0.2260
    118  O         13.0080  -11.8890   23.9760 O.2   357  ARG357     -0.2867
    119  CB        16.0810  -11.2030   24.6670 C.3   357  ARG357      0.0307
    120  CG        16.1260  -10.1540   25.7710 C.3   357  ARG357      0.0489
    121  CD        16.9340   -8.9410   25.2950 C.3   357  ARG357      0.2205
    122  NE        16.2360   -8.2670   24.2080 N.pl3 357  ARG357     -0.0865
    123  CZ        16.4870   -7.0610   23.7350 C.cat 357  ARG357      0.5346
    124  NH1       17.4680   -6.3380   24.2520 N.pl3 357  ARG357      0.1354
    125  NH2       15.7550   -6.5590   22.7420 N.pl3 357  ARG357      0.1354
@<TRIPOS>BOND
     1   113   114   ar
     2   113   111   ar
     3   114   112   ar
     4   111   109   ar
     5   112   110   ar
     6   109   110   ar
     7   109   108    1
     8   108   105    1
     9    52    51    1
    10    50    49    2
    11   107   106    2
    12    51    48    1
    13    51    53    1
    14    81    80    1
    15    48    49    1
    16    48    47    1
    17   105   106    1
    18   105   104    1
    19    80    79    1
    20   104    99   am
    21    79    78    1
    22   100    99    2
    23    99    98    1
    24    78    77    1
    25    39    38    1
    26   102   103    1
    27   102   101    1
    28    46    45    1
    29    97    98    1
    30    97   103    1
    31    98   101    1
    32    40    38    1
    33    77    74    1
    34    38    37    1
    35    44    43    2
    36    43    42    1
    37    45    42    1
    38    73    74    1
    39    73    67   am
    40    74    75    1
    41    69    66    1
    42    69    70    1
    43    42    41    1
    44    37    34    1
    45    66    67    1
    46    66    65    1
    47    76    75    2
    48    67    68    2
    49    75    82   am
    50    36    35    2
    51    70    72   am
    52    70    71    2
    53    34    35    1
    54    34    33    1
    55    82    83    1
    56    32    31   ar
    57    32    30   ar
    58    31    29   ar
    59    96    94    1
    60    83    84    1
    61    83    86    1
    62    33    25   am
    63     7     6    1
    64    90    84   am
    65    90    91    1
    66    84    85    2
    67    94    91    1
    68    94    95    1
    69     6     5    1
    70     6     8    1
    71    29    28   ar
    72    30    28   ar
    73    91    92    1
    74    86    87    1
    75   125   123    1
    76    25    26    2
    77    25    24    1
    78     5     2    1
    79    28    27    1
    80    88    87    2
    81    87    89   am
    82   123   122    2
    83   123   124    1
    84    13    14    1
    85    13    10    1
    86    92    93    2
    87   115   116    1
    88    24    27    1
    89    24    23    1
    90   118   117    2
    91     4     3    2
    92   122   121    1
    93     2     3    1
    94     2     1    1
    95    59    58    1
    96     3     9   am
    97     9    10    1
    98    10    11    1
    99    22    21    2
   100   119   116    1
   101   119   120    1
   102   116   117    1
   103    58    55    1
   104    23    21   am
   105   121   120    1
   106    21    20    1
   107    11    12    2
   108    55    56    1
   109    55    54    1
   110    57    56    2
   111    20    19    1
   112    64    61    1
   113    56    60   am
   114    19    17   am
   115    18    17    2
   116    17    16    1
   117    60    61    1
   118    15    16    1
   119    61    62    1
   120    62    63    2
