@<TRIPOS>MOLECULE
tmp/1kl7A00.pdb
 152 147 0 0 0
SMALL
GASTEIGER

@<TRIPOS>ATOM
      1  N         44.5680   16.2770   31.9420 N.3   120  ALA120     -0.1231
      2  CA        44.4300   17.7200   31.8080 C.3   120  ALA120      0.1694
      3  C         42.9350   17.9830   31.6280 C.2   120  ALA120      0.2592
      4  O         42.2210   17.1690   31.0350 O.2   120  ALA120     -0.2718
      5  CB        45.1990   18.2090   30.6250 C.3   120  ALA120      0.0304
      6  N         42.4670   19.1220   32.1320 N.am  121  PHE121     -0.1962
      7  CA        41.0490   19.4690   32.0730 C.3   121  PHE121      0.1771
      8  C         40.3950   19.5800   30.7010 C.2   121  PHE121      0.2619
      9  O         39.1790   19.5480   30.5990 O.2   121  PHE121     -0.2715
     10  CB        40.7960   20.7570   32.8770 C.3   121  PHE121      0.0574
     11  CG        40.6470   21.9960   32.0370 C.ar  121  PHE121     -0.0200
     12  CD1       39.3900   22.4020   31.5910 C.ar  121  PHE121     -0.0042
     13  CD2       41.7590   22.7660   31.7090 C.ar  121  PHE121     -0.0042
     14  CE1       39.2410   23.5500   30.8360 C.ar  121  PHE121     -0.0003
     15  CE2       41.6280   23.9180   30.9540 C.ar  121  PHE121     -0.0003
     16  CZ        40.3600   24.3140   30.5150 C.ar  121  PHE121     -0.0000
     17  N         41.1730   19.7000   29.6410 N.am  122  LYS122     -0.1977
     18  CA        40.5480   19.8180   28.3320 C.3   122  LYS122      0.1596
     19  C         39.8400   18.5450   27.8800 C.2   122  LYS122      0.2287
     20  O         39.1410   18.5420   26.8610 O.2   122  LYS122     -0.2864
     21  CB        41.5790   20.2670   27.2970 C.3   122  LYS122      0.0298
     22  CG        42.0420   21.6800   27.5630 C.3   122  LYS122      0.0038
     23  CD        42.8350   22.2600   26.4120 C.3   122  LYS122      0.0206
     24  CE        42.8140   23.7740   26.5190 C.3   122  LYS122      0.1093
     25  NZ        43.3390   24.1380   27.8360 N.3   122  LYS122     -0.1314
     26  N         50.8560   20.2810   25.2820 N.3   161  ASP161     -0.1225
     27  CA        49.7750   19.4020   25.7230 C.3   161  ASP161      0.1805
     28  C         48.4770   19.5150   24.9340 C.2   161  ASP161      0.2598
     29  O         47.8600   18.4990   24.6120 O.2   161  ASP161     -0.2718
     30  CB        49.4890   19.6350   27.2190 C.3   161  ASP161      0.1424
     31  CG        49.0340   21.0660   27.5220 C.2   161  ASP161      0.3668
     32  OD1       49.7480   22.0210   27.1300 O.co2 161  ASP161     -0.2456
     33  OD2       47.9660   21.2310   28.1630 O.co2 161  ASP161     -0.2456
     34  N         48.0700   20.7450   24.6310 N.am  162  THR162     -0.1953
     35  CA        46.8310   21.0090   23.8980 C.3   162  THR162      0.1897
     36  C         46.4120   19.8780   22.9550 C.2   162  THR162      0.2313
     37  O         45.2690   19.4100   23.0040 O.2   162  THR162     -0.2863
     38  CB        46.9450   22.3070   23.0770 C.3   162  THR162      0.1794
     39  OG1       47.8260   22.0950   21.9660 O.3   162  THR162     -0.2208
     40  CG2       47.5010   23.4340   23.9500 C.3   162  THR162      0.0378
     41  N         39.5840   26.0720   19.8710 N.3   236  SER236     -0.1217
     42  CA        39.2990   26.2400   21.2900 C.3   236  SER236      0.1889
     43  C         37.9980   27.0290   21.4190 C.2   236  SER236      0.2288
     44  O         37.5020   27.2640   22.5210 O.2   236  SER236     -0.2866
     45  CB        40.4160   27.0320   21.9760 C.3   236  SER236      0.2089
     46  OG        40.3660   28.4070   21.5980 O.3   236  SER236     -0.2183
     47  N         32.4280   23.0520   23.2630 N.3   241  ARG241     -0.1245
     48  CA        33.4040   23.1230   24.3310 C.3   241  ARG241      0.1563
     49  C         32.7940   23.8300   25.5280 C.2   241  ARG241      0.2260
     50  O         32.7490   23.2770   26.6340 O.2   241  ARG241     -0.2867
     51  CB        34.6610   23.8680   23.8920 C.3   241  ARG241      0.0307
     52  CG        35.6900   23.0270   23.1630 C.3   241  ARG241      0.0489
     53  CD        37.0240   23.7550   23.1870 C.3   241  ARG241      0.2205
     54  NE        38.1460   22.8950   22.8130 N.pl3 241  ARG241     -0.0865
     55  CZ        39.3970   23.0740   23.2410 C.cat 241  ARG241      0.5346
     56  NH1       39.6890   24.0850   24.0580 N.pl3 241  ARG241      0.1354
     57  NH2       40.3600   22.2340   22.8700 N.pl3 241  ARG241      0.1354
     58  N         31.8290   22.2140   29.3940 N.3   245  GLN245     -0.1245
     59  CA        32.4390   22.7320   30.6030 C.3   245  GLN245      0.1566
     60  C         31.4990   23.2920   31.6440 C.2   245  GLN245      0.2260
     61  O         31.9090   23.5440   32.7610 O.2   245  GLN245     -0.2867
     62  CB        33.4920   23.7610   30.2370 C.3   245  GLN245      0.0367
     63  CG        34.5820   23.1520   29.3930 C.3   245  GLN245      0.0905
     64  CD        35.7090   24.1110   29.1400 C.2   245  GLN245      0.2608
     65  OE1       35.8200   24.6870   28.0610 O.2   245  GLN245     -0.2717
     66  NE2       36.5570   24.3050   30.1500 N.am  245  GLN245     -0.0878
     67  N         41.9310   29.5450   36.7170 N.3   269  PRO269     -0.2102
     68  CA        43.1130   30.0070   35.9910 C.3   269  PRO269      0.1504
     69  C         42.6890   30.0230   34.5120 C.2   269  PRO269      0.2576
     70  O         42.2970   28.9860   33.9620 O.2   269  PRO269     -0.2718
     71  CB        44.1560   28.9340   36.3310 C.3   269  PRO269      0.0282
     72  CG        43.3190   27.7160   36.5950 C.3   269  PRO269      0.0208
     73  CD        42.1590   28.2330   37.3560 C.3   269  PRO269      0.0893
     74  N         42.7690   31.1890   33.8700 N.am  270  SER270     -0.1938
     75  CA        42.3050   31.3150   32.4950 C.3   270  SER270      0.2055
     76  C         43.3050   31.6340   31.4010 C.2   270  SER270      0.2644
     77  O         44.3430   32.2370   31.6490 O.2   270  SER270     -0.2714
     78  CB        41.2060   32.3630   32.4610 C.3   270  SER270      0.2130
     79  OG        40.2450   32.1190   33.4760 O.3   270  SER270     -0.2179
     80  N         42.9620   31.2290   30.1780 N.am  271  GLY271     -0.1939
     81  CA        43.7920   31.4890   29.0150 C.3   271  GLY271      0.2014
     82  C         42.8850   32.1220   27.9720 C.2   271  GLY271      0.2639
     83  O         42.7960   33.3540   27.8530 O.2   271  GLY271     -0.2714
     84  N         42.1850   31.2780   27.2270 N.am  272  ASN272     -0.1958
     85  CA        41.2620   31.7460   26.2120 C.3   272  ASN272      0.1819
     86  C         39.8440   32.0180   26.7030 C.2   272  ASN272      0.2621
     87  O         38.9440   32.2170   25.8910 O.2   272  ASN272     -0.2715
     88  CB        41.2120   30.7690   25.0440 C.3   272  ASN272      0.1195
     89  CG        42.4530   30.8300   24.2010 C.2   272  ASN272      0.2630
     90  OD1       42.9390   31.9250   23.8530 O.2   272  ASN272     -0.2716
     91  ND2       42.9830   29.6640   23.8590 N.am  272  ASN272     -0.0877
     92  N         39.6460   32.0010   28.0180 N.am  273  PHE273     -0.1960
     93  CA        38.3530   32.3220   28.6280 C.3   273  PHE273      0.1771
     94  C         37.2110   31.3070   28.5180 C.2   273  PHE273      0.2620
     95  O         36.1600   31.4800   29.1600 O.2   273  PHE273     -0.2715
     96  CB        37.8480   33.6760   28.0860 C.3   273  PHE273      0.0574
     97  CG        37.0800   34.4880   29.0920 C.ar  273  PHE273     -0.0200
     98  CD1       37.7210   35.0420   30.1950 C.ar  273  PHE273     -0.0042
     99  CD2       35.7220   34.7300   28.9200 C.ar  273  PHE273     -0.0042
    100  CE1       37.0310   35.8280   31.1070 C.ar  273  PHE273     -0.0003
    101  CE2       35.0200   35.5170   29.8290 C.ar  273  PHE273     -0.0003
    102  CZ        35.6840   36.0680   30.9250 C.ar  273  PHE273     -0.0000
    103  N         37.4010   30.2550   27.7290 N.am  274  GLY274     -0.1940
    104  CA        36.3440   29.2730   27.5700 C.3   274  GLY274      0.2014
    105  C         35.8900   28.6320   28.8650 C.2   274  GLY274      0.2638
    106  O         34.6950   28.5030   29.1370 O.2   274  GLY274     -0.2714
    107  N         36.8570   28.2320   29.6750 N.am  275  ASP275     -0.1971
    108  CA        36.5850   27.5900   30.9470 C.3   275  ASP275      0.1709
    109  C         35.7470   28.4650   31.8550 C.2   275  ASP275      0.2293
    110  O         34.6820   28.0560   32.3180 O.2   275  ASP275     -0.2864
    111  CB        37.8980   27.2710   31.6380 C.3   275  ASP275      0.1436
    112  CG        37.7370   26.3150   32.8070 C.2   275  ASP275      0.3671
    113  OD1       38.7610   26.0380   33.4800 O.co2 275  ASP275     -0.2456
    114  OD2       36.6090   25.8400   33.0460 O.co2 275  ASP275     -0.2456
    115  N         50.3100   26.7670   29.3060 N.3   323  ALA323     -0.1245
    116  CA        48.9870   26.6560   28.6690 C.3   323  ALA323      0.1562
    117  C         48.0760   27.8960   28.7620 C.2   323  ALA323      0.2260
    118  O         46.9880   27.9250   28.1920 O.2   323  ALA323     -0.2867
    119  CB        48.2570   25.4290   29.2120 C.3   323  ALA323      0.0290
    120  N         49.5800   25.5850   36.7530 N.3   414  HIS414     -0.1241
    121  CA        48.3640   26.2520   36.2830 C.3   414  HIS414      0.1621
    122  C         47.3310   26.3600   37.4160 C.2   414  HIS414      0.2264
    123  O         46.6760   27.4080   37.5870 O.2   414  HIS414     -0.2867
    124  CB        47.7630   25.5110   35.0950 C.3   414  HIS414      0.0745
    125  CG        48.6890   25.3870   33.9230 C.ar  414  HIS414      0.0817
    126  ND1       49.7430   24.4990   33.8920 N.ar  414  HIS414     -0.2268
    127  CD2       48.7100   26.0320   32.7290 C.ar  414  HIS414      0.1154
    128  CE1       50.3710   24.6000   32.7320 C.ar  414  HIS414      0.1986
    129  NE2       49.7650   25.5230   32.0090 N.ar  414  HIS414     -0.2212
    130  N         43.3640   22.4350   36.6750 N.3   441  THR441     -0.1203
    131  CA        43.3270   22.1150   35.2620 C.3   441  THR441      0.1994
    132  C         44.3200   21.0930   34.7610 C.2   441  THR441      0.2617
    133  O         44.2010   20.6220   33.6360 O.2   441  THR441     -0.2717
    134  CB        43.5130   23.4060   34.4740 C.3   441  THR441      0.1784
    135  OG1       44.8000   23.9720   34.7880 O.3   441  THR441     -0.2211
    136  CG2       42.4370   24.4060   34.8700 C.3   441  THR441      0.0376
    137  N         45.3080   20.7550   35.5780 N.am  442  ALA442     -0.1979
    138  CA        46.2990   19.7780   35.1590 C.3   442  ALA442      0.1597
    139  C         46.8660   19.0060   36.3260 C.2   442  ALA442      0.2287
    140  O         47.0650   19.5540   37.4060 O.2   442  ALA442     -0.2864
    141  CB        47.4150   20.4540   34.4060 C.3   442  ALA442      0.0319
    142  N         53.5080   18.6710   34.4090 N.3   447  PHE447     -0.1241
    143  CA        54.4780   19.7610   34.4770 C.3   447  PHE447      0.1605
    144  C         55.4310   19.5200   35.6440 C.2   447  PHE447      0.2264
    145  O         55.3950   20.2080   36.6610 O.2   447  PHE447     -0.2867
    146  CB        53.7450   21.1150   34.6160 C.3   447  PHE447      0.0534
    147  CG        52.7510   21.3670   33.5120 C.ar  447  PHE447     -0.0203
    148  CD1       51.4230   20.9590   33.6380 C.ar  447  PHE447     -0.0042
    149  CD2       53.1680   21.9030   32.2960 C.ar  447  PHE447     -0.0042
    150  CE1       50.5300   21.0770   32.5660 C.ar  447  PHE447     -0.0003
    151  CE2       52.2800   22.0230   31.2210 C.ar  447  PHE447     -0.0003
    152  CZ        50.9580   21.6070   31.3580 C.ar  447  PHE447     -0.0000
@<TRIPOS>BOND
     1    41    42    1
     2    42    43    1
     3    42    45    1
     4    43    44    2
     5    46    45    1
     6    39    38    1
     7    54    53    1
     8    54    55    2
     9    57    55    1
    10    36    37    2
    11    36    35    1
    12    38    35    1
    13    38    40    1
    14    52    53    1
    15    52    51    1
    16    55    56    1
    17    47    48    1
    18    90    89    2
    19    91    89   am
    20    51    48    1
    21    35    34    1
    22    89    88    1
    23    48    49    1
    24    29    28    2
    25    34    28   am
    26    28    27    1
    27    88    85    1
    28    26    27    1
    29    49    50    2
    30    27    30    1
    31    87    86    2
    32    85    86    1
    33    85    84    1
    34    23    24    1
    35    23    22    1
    36    24    25    1
    37    86    92   am
    38    20    19    2
    39    32    31   ar
    40    30    31    1
    41    84    82   am
    42    21    22    1
    43    21    18    1
    44    31    33   ar
    45   104   103    1
    46   104   105    1
    47   103    94   am
    48    83    82    2
    49    19    18    1
    50    82    81    1
    51    92    93    1
    52    65    64    2
    53    96    93    1
    54    96    97    1
    55   118   117    2
    56    18    17    1
    57    94    93    1
    58    94    95    2
    59   116   117    1
    60   116   119    1
    61   116   115    1
    62   105   106    2
    63   105   107   am
    64    99    97   ar
    65    99   101   ar
    66    81    80    1
    67    97    98   ar
    68    64    63    1
    69    64    66   am
    70    63    62    1
    71    58    59    1
    72    17     8   am
    73   107   108    1
    74   101   102   ar
    75    80    76   am
    76    98   100   ar
    77    62    59    1
    78    16    14   ar
    79    16    15   ar
    80     9     8    2
    81    59    60    1
    82     5     2    1
    83     8     7    1
    84    14    12   ar
    85   102   100   ar
    86   108   111    1
    87   108   109    1
    88    15    13   ar
    89     4     3    2
    90   151   152   ar
    91   151   149   ar
    92   152   150   ar
    93    76    77    2
    94    76    75    1
    95    12    11   ar
    96     3     2    1
    97     3     6   am
    98   111   112    1
    99    60    61    2
   100    13    11   ar
   101     2     1    1
   102   109   110    2
   103   129   127   ar
   104   129   128   ar
   105    11    10    1
   106     7     6    1
   107     7    10    1
   108   149   147   ar
   109    78    75    1
   110    78    79    1
   111    75    74    1
   112   150   148   ar
   113   127   125   ar
   114   128   126   ar
   115   112   114   ar
   116   112   113   ar
   117   147   148   ar
   118   147   146    1
   119   133   132    2
   120    74    69   am
   121   126   125   ar
   122   125   124    1
   123    70    69    2
   124   141   138    1
   125   142   143    1
   126   134   135    1
   127   134   136    1
   128   134   131    1
   129   143   146    1
   130   143   144    1
   131    69    68    1
   132   132   131    1
   133   132   137   am
   134   124   121    1
   135   138   137    1
   136   138   139    1
   137   131   130    1
   138   144   145    2
   139    68    71    1
   140    68    67    1
   141   121   120    1
   142   121   122    1
   143   139   140    2
   144    71    72    1
   145    72    73    1
   146    67    73    1
   147   122   123    2
