@<TRIPOS>MOLECULE
tmp/1klkA00.pdb
 178 172 0 0 0
SMALL
GASTEIGER

@<TRIPOS>ATOM
      1  N          5.7770    4.0840   16.0770 N.3     7  ILE7       -0.1231
      2  CA         6.3510    3.3320   14.9850 C.3     7  ILE7        0.1692
      3  C          7.7780    2.9480   15.3450 C.2     7  ILE7        0.2592
      4  O          8.5870    3.7920   15.7520 O.2     7  ILE7       -0.2718
      5  CB         6.2800    4.1500   13.6530 C.3     7  ILE7        0.0266
      6  CG1        6.7770    3.2960   12.4850 C.3     7  ILE7        0.0019
      7  CG2        7.0840    5.4470   13.7590 C.3     7  ILE7        0.0020
      8  CD1        6.5280    3.9280   11.1100 C.3     7  ILE7        0.0001
      9  N          8.0710    1.6550   15.2120 N.am    8  VAL8       -0.1966
     10  CA         9.3830    1.1270   15.5420 C.3     8  VAL8        0.1727
     11  C          9.8060   -0.1080   14.7150 C.2     8  VAL8        0.2616
     12  O          8.9760   -0.8490   14.1850 O.2     8  VAL8       -0.2715
     13  CB         9.4330    0.7960   17.0610 C.3     8  VAL8        0.0290
     14  CG1        8.6200   -0.4500   17.3540 C.3     8  VAL8        0.0023
     15  CG2       10.8630    0.6490   17.5190 C.3     8  VAL8        0.0023
     16  N         11.1190   -0.2830   14.5840 N.am    9  ALA9       -0.1977
     17  CA        11.7220   -1.4150   13.8820 C.3     9  ALA9        0.1597
     18  C         12.5480   -2.0360   14.9980 C.2     9  ALA9        0.2287
     19  O         13.4060   -1.3630   15.5700 O.2     9  ALA9       -0.2864
     20  CB        12.6360   -0.9370   12.7680 C.3     9  ALA9        0.0319
     21  N         24.0770    4.6020   19.2500 N.3    20  ASN20      -0.1225
     22  CA        23.3720    5.7450   18.6810 C.3    20  ASN20       0.1785
     23  C         23.2330    5.6590   17.1540 C.2    20  ASN20       0.2598
     24  O         23.3000    6.6710   16.4480 O.2    20  ASN20      -0.2718
     25  CB        24.0910    7.0410   19.0680 C.3    20  ASN20       0.1169
     26  CG        24.0040    7.3330   20.5480 C.2    20  ASN20       0.2627
     27  OD1       24.5780    8.3040   21.0270 O.2    20  ASN20      -0.2716
     28  ND2       23.2750    6.4960   21.2810 N.am   20  ASN20      -0.0877
     29  N         23.0310    4.4450   16.6520 N.am   21  SER21      -0.1938
     30  CA        22.8750    4.2190   15.2200 C.3    21  SER21       0.2055
     31  C         22.0570    2.9400   15.0000 C.2    21  SER21       0.2642
     32  O         21.5940    2.3170   15.9580 O.2    21  SER21      -0.2714
     33  CB        24.2580    4.0960   14.5700 C.3    21  SER21       0.2130
     34  OG        24.1840    4.1040   13.1540 O.3    21  SER21      -0.2179
     35  N         21.8660    2.5550   13.7440 N.am   22  LEU22      -0.1977
     36  CA        21.1090    1.3480   13.4360 C.3    22  LEU22       0.1596
     37  C         22.0010    0.2380   12.9070 C.2    22  LEU22       0.2287
     38  O         22.6120    0.3710   11.8460 O.2    22  LEU22      -0.2864
     39  CB        20.0130    1.6360   12.4150 C.3    22  LEU22       0.0297
     40  CG        18.8020    2.3750   12.9750 C.3    22  LEU22       0.0022
     41  CD1       17.7780    2.4820   11.8750 C.3    22  LEU22       0.0001
     42  CD2       18.2180    1.6400   14.1900 C.3    22  LEU22       0.0001
     43  N         21.7640   -1.9960   11.0830 N.3    24  TRP24      -0.1241
     44  CA        21.2760   -2.5720    9.8370 C.3    24  TRP24       0.1605
     45  C         20.9660   -1.5310    8.7560 C.2    24  TRP24       0.2264
     46  O         20.6500   -0.3730    9.0460 O.2    24  TRP24      -0.2867
     47  CB        20.0440   -3.4590   10.1110 C.3    24  TRP24       0.0550
     48  CG        18.8710   -2.7510   10.7120 C.ar   24  TRP24       0.0003
     49  CD1       18.0540   -1.8540   10.0930 C.ar   24  TRP24       0.0946
     50  CD2       18.3930   -2.8700   12.0630 C.ar   24  TRP24       0.0152
     51  NE1       17.0940   -1.4040   10.9690 N.ar   24  TRP24      -0.2442
     52  CE2       17.2800   -2.0070   12.1790 C.ar   24  TRP24       0.0810
     53  CE3       18.7970   -3.6140   13.1750 C.ar   24  TRP24       0.0012
     54  CZ2       16.5670   -1.8750   13.3810 C.ar   24  TRP24       0.0191
     55  CZ3       18.0880   -3.4790   14.3610 C.ar   24  TRP24       0.0001
     56  CH2       16.9880   -2.6160   14.4530 C.ar   24  TRP24       0.0015
     57  N         12.5220   -0.9350    4.3070 N.3    29  GLU29      -0.1231
     58  CA        11.8830   -0.5830    5.5710 C.3    29  GLU29       0.1699
     59  C         11.7640    0.9320    5.6090 C.2    29  GLU29       0.2592
     60  O         10.7180    1.4890    5.9280 O.2    29  GLU29      -0.2718
     61  CB        12.7310   -1.0600    6.7470 C.3    29  GLU29       0.0402
     62  CG        11.9580   -1.3720    8.0270 C.3    29  GLU29       0.1161
     63  CD        11.3430   -0.1560    8.6950 C.2    29  GLU29       0.3649
     64  OE1       12.0440    0.8650    8.8540 O.co2  29  GLU29      -0.2457
     65  OE2       10.1590   -0.2310    9.0850 O.co2  29  GLU29      -0.2457
     66  N         12.8510    1.6030    5.2730 N.am   30  ILE30      -0.1980
     67  CA        12.8370    3.0510    5.2760 C.3    30  ILE30       0.1595
     68  C         11.7420    3.6450    4.3840 C.2    30  ILE30       0.2287
     69  O         11.2360    4.7310    4.6700 O.2    30  ILE30      -0.2864
     70  CB        14.2230    3.6080    4.8730 C.3    30  ILE30       0.0276
     71  CG1       15.2390    3.2410    5.9580 C.3    30  ILE30       0.0022
     72  CG2       14.1680    5.1350    4.7220 C.3    30  ILE30       0.0022
     73  CD1       14.8260    3.7310    7.3710 C.3    30  ILE30       0.0001
     74  N          8.8690    2.2090    3.8860 N.3    32  TYR32      -0.1227
     75  CA         7.6480    1.9860    4.6270 C.3    32  TYR32       0.1736
     76  C          7.5090    3.1270    5.6440 C.2    32  TYR32       0.2595
     77  O          6.4910    3.8140    5.6930 O.2    32  TYR32      -0.2718
     78  CB         7.7290    0.6430    5.3470 C.3    32  TYR32       0.0548
     79  CG         6.5450    0.3380    6.2250 C.ar   32  TYR32      -0.0200
     80  CD1        5.3000    0.0700    5.6690 C.ar   32  TYR32      -0.0009
     81  CD2        6.6750    0.3110    7.6160 C.ar   32  TYR32      -0.0009
     82  CE1        4.2170   -0.2220    6.4640 C.ar   32  TYR32       0.0417
     83  CE2        5.5970    0.0210    8.4250 C.ar   32  TYR32       0.0417
     84  CZ         4.3690   -0.2460    7.8420 C.ar   32  TYR32       0.1957
     85  OH         3.2860   -0.5440    8.6350 O.3    32  TYR32      -0.2866
     86  N          8.5480    3.3250    6.4450 N.am   33  PHE33      -0.1976
     87  CA         8.5530    4.3650    7.4560 C.3    33  PHE33       0.1639
     88  C          8.0160    5.6890    6.9310 C.2    33  PHE33       0.2290
     89  O          7.0740    6.2560    7.4820 O.2    33  PHE33      -0.2864
     90  CB         9.9740    4.5820    7.9720 C.3    33  PHE33       0.0560
     91  CG        10.0870    5.7200    8.9470 C.ar   33  PHE33      -0.0200
     92  CD1        9.5860    5.6030   10.2380 C.ar   33  PHE33      -0.0042
     93  CD2       10.6520    6.9270    8.5570 C.ar   33  PHE33      -0.0042
     94  CE1        9.6300    6.6760   11.1140 C.ar   33  PHE33      -0.0003
     95  CE2       10.6990    8.0090    9.4290 C.ar   33  PHE33      -0.0003
     96  CZ        10.1910    7.8840   10.7110 C.ar   33  PHE33      -0.0000
     97  N         17.7660   10.8550   19.3290 N.3    58  THR58      -0.1218
     98  CA        17.2980   10.3340   18.0470 C.3    58  THR58       0.1862
     99  C         17.3590   11.4110   16.9580 C.2    58  THR58       0.2287
    100  O         17.4640   11.0970   15.7650 O.2    58  THR58      -0.2866
    101  CB        15.8400    9.7960   18.1400 C.3    58  THR58       0.1770
    102  OG1       15.7730    8.7430   19.1180 O.3    58  THR58      -0.2211
    103  CG2       15.3720    9.2770   16.7630 C.3    58  THR58       0.0375
    104  N         21.1600   11.9950   15.8570 N.3    61  SER61      -0.1202
    105  CA        21.7150   10.8400   15.1380 C.3    61  SER61       0.2020
    106  C         21.3050   10.7510   13.6770 C.2    61  SER61       0.2619
    107  O         21.8040    9.9030   12.9340 O.2    61  SER61      -0.2717
    108  CB        21.3200    9.5340   15.8360 C.3    61  SER61       0.2103
    109  OG        21.8070    9.4860   17.1680 O.3    61  SER61      -0.2182
    110  N         20.3910   11.6200   13.2680 N.am   62  ILE62      -0.1966
    111  CA        19.9210   11.6420   11.8910 C.3    62  ILE62       0.1712
    112  C         20.8230   12.5870   11.0970 C.2    62  ILE62       0.2458
    113  O         20.8790   13.7860   11.3830 O.2    62  ILE62      -0.2730
    114  CB        18.4560   12.1480   11.8150 C.3    62  ILE62       0.0289
    115  CG1       17.5570   11.2730   12.6920 C.3    62  ILE62       0.0022
    116  CG2       17.9770   12.1510   10.3680 C.3    62  ILE62       0.0023
    117  CD1       16.1180   11.6990   12.6930 C.3    62  ILE62       0.0001
    118  N         21.5460   12.0550   10.0930 N.am   63  PRO63      -0.2727
    119  CA        22.4460   12.8660    9.2630 C.3    63  PRO63       0.1402
    120  C         21.7620   14.1040    8.6820 C.2    63  PRO63       0.2269
    121  O         20.6850   14.0070    8.0980 O.2    63  PRO63      -0.2865
    122  CB        22.9120   11.8760    8.1880 C.3    63  PRO63       0.0296
    123  CG        21.7760   10.8930    8.1000 C.3    63  PRO63       0.0237
    124  CD        21.4460   10.6840    9.5640 C.3    63  PRO63       0.0939
    125  N         19.4760   14.1880    5.9400 N.3    66  PHE66      -0.1241
    126  CA        18.1520   13.6170    6.0940 C.3    66  PHE66       0.1605
    127  C         17.1990   14.5390    6.8430 C.2    66  PHE66       0.2264
    128  O         16.2690   15.0840    6.2530 O.2    66  PHE66      -0.2867
    129  CB        18.2390   12.2660    6.7960 C.3    66  PHE66       0.0534
    130  CG        17.8930   11.1150    5.9030 C.ar   66  PHE66      -0.0203
    131  CD1       18.7120   10.7860    4.8260 C.ar   66  PHE66      -0.0042
    132  CD2       16.7200   10.3940    6.1020 C.ar   66  PHE66      -0.0042
    133  CE1       18.3670    9.7540    3.9540 C.ar   66  PHE66      -0.0003
    134  CE2       16.3640    9.3610    5.2390 C.ar   66  PHE66      -0.0003
    135  CZ        17.1880    9.0400    4.1610 C.ar   66  PHE66      -0.0000
    136  N         12.5880   15.6030    8.8940 N.3    69  LEU69      -0.1245
    137  CA        11.7370   14.7880    8.0600 C.3    69  LEU69       0.1561
    138  C         10.7320   15.6740    7.3410 C.2    69  LEU69       0.2260
    139  O          9.8610   16.2880    7.9580 O.2    69  LEU69      -0.2867
    140  CB        11.0540   13.7190    8.9100 C.3    69  LEU69       0.0270
    141  CG        12.0400   12.8680    9.7290 C.3    69  LEU69       0.0019
    142  CD1       11.3100   11.6710   10.3210 C.3    69  LEU69       0.0001
    143  CD2       13.1940   12.4150    8.8440 C.3    69  LEU69       0.0001
    144  N          8.1880    8.6480   16.6750 N.3   120  ILE120     -0.1245
    145  CA         9.1770    7.9030   15.9140 C.3   120  ILE120      0.1561
    146  C         10.3430    7.3380   16.6760 C.2   120  ILE120      0.2260
    147  O         11.3580    6.9550   16.0990 O.2   120  ILE120     -0.2867
    148  CB         9.7300    8.7130   14.7440 C.3   120  ILE120      0.0252
    149  CG1       10.5830    9.8680   15.2550 C.3   120  ILE120      0.0019
    150  CG2        8.5910    9.1680   13.8650 C.3   120  ILE120      0.0019
    151  CD1       11.4730   10.4660   14.1570 C.3   120  ILE120      0.0001
    152  N          9.9480    6.2520   23.9890 N.3   126  TYR126     -0.1241
    153  CA         9.0430    5.1260   23.7940 C.3   126  TYR126      0.1605
    154  C          8.3200    4.8130   25.0910 C.2   126  TYR126      0.2264
    155  O          7.0920    4.7440   25.1170 O.2   126  TYR126     -0.2867
    156  CB         9.7920    3.8760   23.3200 C.3   126  TYR126      0.0534
    157  CG        10.0420    3.8550   21.8370 C.ar  126  TYR126     -0.0201
    158  CD1        9.0650    4.2950   20.9420 C.ar  126  TYR126     -0.0009
    159  CD2       11.2440    3.3710   21.3200 C.ar  126  TYR126     -0.0009
    160  CE1        9.2810    4.2550   19.5630 C.ar  126  TYR126      0.0417
    161  CE2       11.4720    3.3220   19.9420 C.ar  126  TYR126      0.0417
    162  CZ        10.4890    3.7660   19.0680 C.ar  126  TYR126      0.1957
    163  OH        10.7200    3.7370   17.7040 O.3   126  TYR126     -0.2866
    164  N          3.0030    0.5230   15.1210 N.3   139  MET139     -0.1245
    165  CA         3.4080    0.0450   13.8150 C.3   139  MET139      0.1570
    166  C          4.7960   -0.5580   14.0550 C.2   139  MET139      0.2261
    167  O          5.7480    0.1650   14.3510 O.2   139  MET139     -0.2867
    168  CB         3.4720    1.2190   12.8460 C.3   139  MET139      0.0387
    169  CG         2.1410    1.9260   12.6600 C.3   139  MET139      0.0595
    170  SD         0.9850    0.9540   11.6840 S.3   139  MET139     -0.1393
    171  CE        -0.2310    0.7140   12.8150 C.3   139  MET139      0.0692
    172  N          8.0730   -3.2880   12.9080 N.3   141  THR141     -0.1218
    173  CA         8.8080   -4.0040   11.8720 C.3   141  THR141      0.1862
    174  C          9.7000   -4.9580   12.6640 C.2   141  THR141      0.2287
    175  O         10.5500   -4.5140   13.4320 O.2   141  THR141     -0.2866
    176  CB         9.7110   -3.0750   11.0400 C.3   141  THR141      0.1770
    177  OG1        8.9140   -2.1440   10.2910 O.3   141  THR141     -0.2211
    178  CG2       10.5630   -3.9030   10.0900 C.3   141  THR141      0.0375
@<TRIPOS>BOND
     1    74    75    1
     2   133   135   ar
     3   133   131   ar
     4   135   134   ar
     5    57    58    1
     6    68    69    2
     7    68    67    1
     8    75    78    1
     9    75    76    1
    10    72    70    1
    11   131   130   ar
    12    70    67    1
    13    70    71    1
    14   134   132   ar
    15    66    67    1
    16    66    59   am
    17    78    79    1
    18    58    59    1
    19    58    61    1
    20    59    60    2
    21    76    77    2
    22    76    86   am
    23    80    79   ar
    24    80    82   ar
    25   130   132   ar
    26   130   129    1
    27   125   126    1
    28    71    73    1
    29   126   129    1
    30   126   127    1
    31    79    81   ar
    32   128   127    2
    33    86    87    1
    34    82    84   ar
    35    61    62    1
    36    88    87    1
    37    88    89    2
    38   138   139    2
    39   138   137    1
    40    87    90    1
    41    81    83   ar
    42    84    83   ar
    43    84    85    1
    44    90    91    1
    45    62    63    1
    46   137   136    1
    47   137   140    1
    48   121   120    2
    49   123   122    1
    50   123   124    1
    51   122   119    1
    52    93    91   ar
    53    93    95   ar
    54   120   119    1
    55    63    64   ar
    56    63    65   ar
    57    45    46    2
    58    45    44    1
    59   143   141    1
    60   140   141    1
    61    91    92   ar
    62   119   118    1
    63    95    96   ar
    64   124   118    1
    65   141   142    1
    66    44    47    1
    67    44    43    1
    68   178   176    1
    69   118   112   am
    70    49    48   ar
    71    49    51   ar
    72    47    48    1
    73    92    94   ar
    74   177   176    1
    75   116   114    1
    76    96    94   ar
    77    48    50   ar
    78    51    52   ar
    79   176   173    1
    80   112   113    2
    81   112   111    1
    82     8     6    1
    83   170   169    1
    84   170   171    1
    85   114   111    1
    86   114   115    1
    87    38    37    2
    88   173   174    1
    89   173   172    1
    90    41    40    1
    91   111   110    1
    92    50    52   ar
    93    50    53   ar
    94    52    54   ar
    95    39    40    1
    96    39    36    1
    97     6     5    1
    98   169   168    1
    99   174   175    2
   100   115   117    1
   101    20    17    1
   102   168   165    1
   103    37    36    1
   104   107   106    2
   105    40    42    1
   106    34    33    1
   107    53    55   ar
   108   110   106   am
   109    54    56   ar
   110    36    35    1
   111     5     7    1
   112     5     2    1
   113   106   105    1
   114    35    31   am
   115   165   166    1
   116   165   164    1
   117   150   148    1
   118    17    16    1
   119    17    18    1
   120   166   167    2
   121   151   149    1
   122    12    11    2
   123    55    56   ar
   124    33    30    1
   125    16    11   am
   126    11    10    1
   127   148   149    1
   128   148   145    1
   129     2     3    1
   130     2     1    1
   131    18    19    2
   132    31    30    1
   133    31    32    2
   134   105   108    1
   135   105   104    1
   136     9     3   am
   137     9    10    1
   138    30    29    1
   139     3     4    2
   140    10    13    1
   141   100    99    2
   142   108   109    1
   143   145   144    1
   144   145   146    1
   145   147   146    2
   146    24    23    2
   147    29    23   am
   148   103   101    1
   149    99    98    1
   150    13    14    1
   151    13    15    1
   152    23    22    1
   153   163   162    1
   154    98   101    1
   155    98    97    1
   156   101   102    1
   157    22    25    1
   158    22    21    1
   159    25    26    1
   160   162   160   ar
   161   162   161   ar
   162   160   158   ar
   163   161   159   ar
   164    26    27    2
   165    26    28   am
   166   158   157   ar
   167   159   157   ar
   168   157   156    1
   169   156   153    1
   170   153   152    1
   171   153   154    1
   172   154   155    2
