@<TRIPOS>MOLECULE
tmp/1kllA00.pdb
 79 75 0 0 0
SMALL
GASTEIGER

@<TRIPOS>ATOM
      1  N         -1.1210   38.9750   26.4390 N.3     4  SER4       -0.1202
      2  CA        -0.3130   39.6800   25.4400 C.3     4  SER4        0.2020
      3  C         -0.3030   38.9980   24.0810 C.2     4  SER4        0.2618
      4  O         -0.1070   39.6790   23.0740 O.2     4  SER4       -0.2717
      5  CB         1.1110   39.7850   25.9740 C.3     4  SER4        0.2103
      6  OG         2.0770   40.1950   25.0590 O.3     4  SER4       -0.2182
      7  N         -0.4930   37.6940   24.0860 N.am    5  LEU5       -0.1979
      8  CA        -0.2420   36.8750   22.9130 C.3     5  LEU5        0.1596
      9  C         -1.0060   35.5830   22.9640 C.2     5  LEU5        0.2287
     10  O         -1.1510   34.9960   24.0480 O.2     5  LEU5       -0.2864
     11  CB         1.2680   36.6220   22.9360 C.3     5  LEU5        0.0297
     12  CG         1.9090   35.8240   21.8310 C.3     5  LEU5        0.0022
     13  CD1        3.2960   36.3720   21.5110 C.3     5  LEU5        0.0001
     14  CD2        1.9660   34.3580   22.2200 C.3     5  LEU5        0.0001
     15  N         -0.8540   31.8310   20.9790 N.3     7  ALA7       -0.1245
     16  CA         0.1030   31.1030   20.1940 C.3     7  ALA7        0.1562
     17  C         -0.5250   29.8110   19.6630 C.2     7  ALA7        0.2260
     18  O         -1.3290   29.2160   20.3620 O.2     7  ALA7       -0.2867
     19  CB         1.3220   30.6940   21.0120 C.3     7  ALA7        0.0290
     20  N         11.1410   30.1470   12.7350 N.3    32  PRO32      -0.2102
     21  CA        10.7000   29.1690   13.7300 C.3    32  PRO32       0.1504
     22  C          9.5110   29.6610   14.5490 C.2    32  PRO32       0.2575
     23  O          8.7920   28.8870   15.1640 O.2    32  PRO32      -0.2718
     24  CB        11.9510   29.0690   14.6270 C.3    32  PRO32       0.0282
     25  CG        12.5670   30.4300   14.5300 C.3    32  PRO32       0.0208
     26  CD        12.4040   30.8450   13.0970 C.3    32  PRO32       0.0893
     27  N          9.3230   30.9560   14.5600 N.am   33  HIS33      -0.1976
     28  CA         8.2920   31.6940   15.3020 C.3    33  HIS33       0.1656
     29  C          7.8650   32.9260   14.5250 C.2    33  HIS33       0.2291
     30  O          8.7600   33.6830   14.1410 O.2    33  HIS33      -0.2864
     31  CB         8.8500   32.0790   16.6800 C.3    33  HIS33       0.0771
     32  CG         7.9550   32.9370   17.5320 C.ar   33  HIS33       0.0820
     33  ND1        6.9910   32.4760   18.3970 N.ar   33  HIS33      -0.2267
     34  CD2        7.8920   34.2920   17.6390 C.ar   33  HIS33       0.1154
     35  CE1        6.3840   33.4760   18.9860 C.ar   33  HIS33       0.1986
     36  NE2        6.9070   34.6160   18.5560 N.ar   33  HIS33      -0.2212
     37  N          4.9600   36.2940   14.3410 N.3    35  GLU35      -0.1245
     38  CA         3.9100   37.0350   15.0120 C.3    35  GLU35       0.1567
     39  C          3.1950   37.9840   14.0630 C.2    35  GLU35       0.2260
     40  O          3.8130   38.7020   13.2840 O.2    35  GLU35      -0.2867
     41  CB         4.4540   37.8540   16.2020 C.3    35  GLU35       0.0388
     42  CG         5.1770   36.9760   17.2110 C.3    35  GLU35       0.1160
     43  CD         5.6510   37.6480   18.4650 C.2    35  GLU35       0.3649
     44  OE1        5.4030   38.8430   18.6580 O.co2  35  GLU35      -0.2457
     45  OE2        6.3020   37.0010   19.3260 O.co2  35  GLU35      -0.2457
     46  N          4.3050   28.8930   16.1990 N.3    47  ASP47      -0.1239
     47  CA         5.5870   28.2500   16.4450 C.3    47  ASP47       0.1674
     48  C          5.6650   26.9070   15.7340 C.2    47  ASP47       0.2266
     49  O          4.6810   26.1590   15.7850 O.2    47  ASP47      -0.2867
     50  CB         5.8090   27.9380   17.9320 C.3    47  ASP47       0.1410
     51  CG         5.8850   29.1740   18.7910 C.2    47  ASP47       0.3668
     52  OD1        6.8500   29.9230   18.6100 O.co2  47  ASP47      -0.2456
     53  OD2        4.9940   29.4260   19.6070 O.co2  47  ASP47      -0.2456
     54  N         10.4780   23.9590   17.2860 N.3    51  THR51      -0.1203
     55  CA        10.6180   25.1240   18.1170 C.3    51  THR51       0.1994
     56  C         10.0120   24.7480   19.4700 C.2    51  THR51       0.2617
     57  O         10.6840   24.8800   20.4990 O.2    51  THR51      -0.2717
     58  CB         9.9550   26.3780   17.5500 C.3    51  THR51       0.1784
     59  OG1       10.7920   26.8190   16.4650 O.3    51  THR51      -0.2211
     60  CG2        9.9200   27.5760   18.4900 C.3    51  THR51       0.0376
     61  N          8.7580   24.2750   19.3910 N.am   52  VAL52      -0.1979
     62  CA         8.1130   23.9240   20.6630 C.3    52  VAL52       0.1595
     63  C          8.8780   22.8380   21.3820 C.2    52  VAL52       0.2287
     64  O          9.0850   22.8850   22.5950 O.2    52  VAL52      -0.2864
     65  CB         6.6530   23.4770   20.4390 C.3    52  VAL52       0.0276
     66  CG1        6.0640   22.8270   21.6690 C.3    52  VAL52       0.0022
     67  CG2        5.8250   24.6870   20.0010 C.3    52  VAL52       0.0022
     68  N         11.9500   23.3800   23.9530 N.3    55  TYR55      -0.1241
     69  CA        11.8080   23.6280   25.3960 C.3    55  TYR55       0.1605
     70  C         10.6890   22.8010   25.9980 C.2    55  TYR55       0.2264
     71  O         10.5950   22.7370   27.2280 O.2    55  TYR55      -0.2867
     72  CB        11.5910   25.1300   25.7150 C.3    55  TYR55       0.0534
     73  CG        10.3250   25.6100   25.0040 C.ar   55  TYR55      -0.0201
     74  CD1        9.0880   25.6310   25.6360 C.ar   55  TYR55      -0.0009
     75  CD2       10.3620   26.0690   23.6940 C.ar   55  TYR55      -0.0009
     76  CE1        7.9220   26.0620   25.0470 C.ar   55  TYR55       0.0417
     77  CE2        9.2010   26.4910   23.0710 C.ar   55  TYR55       0.0417
     78  CZ         7.9910   26.4930   23.7370 C.ar   55  TYR55       0.1957
     79  OH         6.8440   26.9020   23.1160 O.3    55  TYR55      -0.2866
@<TRIPOS>BOND
     1    20    26    1
     2    20    21    1
     3    26    25    1
     4    40    39    2
     5    21    22    1
     6    21    24    1
     7    39    38    1
     8    30    29    2
     9    37    38    1
    10    29    28    1
    11    25    24    1
    12    22    27   am
    13    22    23    2
    14    27    28    1
    15    38    41    1
    16    28    31    1
    17    48    49    2
    18    48    47    1
    19    46    47    1
    20    41    42    1
    21    47    50    1
    22    59    58    1
    23    31    32    1
    24    42    43    1
    25    54    55    1
    26    32    34   ar
    27    32    33   ar
    28    58    55    1
    29    58    60    1
    30    34    36   ar
    31    50    51    1
    32    55    56    1
    33    33    35   ar
    34    43    44   ar
    35    43    45   ar
    36    36    35   ar
    37    52    51   ar
    38    51    53   ar
    39    61    56   am
    40    61    62    1
    41    56    57    2
    42    17    16    1
    43    17    18    2
    44    67    65    1
    45    16    15    1
    46    16    19    1
    47    65    62    1
    48    65    66    1
    49    62    63    1
    50    63    64    2
    51    13    12    1
    52    12    14    1
    53    12    11    1
    54     8    11    1
    55     8     9    1
    56     8     7    1
    57     9    10    2
    58    77    75   ar
    59    77    78   ar
    60     4     3    2
    61    79    78    1
    62    75    73   ar
    63    78    76   ar
    64    68    69    1
    65     3     7   am
    66     3     2    1
    67    73    74   ar
    68    73    72    1
    69    76    74   ar
    70     6     5    1
    71    69    72    1
    72    69    70    1
    73     2     5    1
    74     2     1    1
    75    70    71    2
