@<TRIPOS>MOLECULE
tmp/1klmA00.pdb
 184 185 0 0 0
SMALL
GASTEIGER

@<TRIPOS>ATOM
      1  N          6.4620  -29.4810   25.8390 N.3    94  PRO94      -0.2116
      2  CA         5.9810  -29.4370   24.4580 C.3    94  PRO94       0.1372
      3  C          5.0720  -28.2380   24.2120 C.2    94  PRO94       0.2244
      4  O          4.7300  -27.4970   25.1350 O.2    94  PRO94      -0.2868
      5  CB         5.2030  -30.7470   24.3320 C.3    94  PRO94       0.0268
      6  CG         5.9230  -31.6550   25.2600 C.3    94  PRO94       0.0207
      7  CD         6.1240  -30.7710   26.4600 C.3    94  PRO94       0.0892
      8  N          1.8940  -30.9250   18.7280 N.3    99  LEU99      -0.1231
      9  CA         1.1770  -32.1270   19.1290 C.3    99  LEU99       0.1693
     10  C          0.3900  -32.6740   17.9490 C.2    99  LEU99       0.2592
     11  O         -0.2870  -31.9230   17.2360 O.2    99  LEU99      -0.2718
     12  CB         0.2230  -31.8350   20.2870 C.3    99  LEU99       0.0284
     13  CG         0.8330  -31.7590   21.6820 C.3    99  LEU99       0.0019
     14  CD1       -0.2000  -31.2640   22.6680 C.3    99  LEU99       0.0001
     15  CD2        1.3410  -33.1290   22.0820 C.3    99  LEU99       0.0001
     16  N          0.5170  -33.9770   17.7220 N.am  100  LYS100     -0.1966
     17  CA        -0.2050  -34.6260   16.6440 C.3   100  LYS100      0.1728
     18  C         -1.5900  -34.9680   17.1690 C.2   100  LYS100      0.2616
     19  O         -1.7400  -35.4130   18.3120 O.2   100  LYS100     -0.2715
     20  CB         0.5410  -35.8720   16.1730 C.3   100  LYS100      0.0311
     21  CG         1.7000  -35.5440   15.2450 C.3   100  LYS100      0.0038
     22  CD         2.5510  -36.7580   14.9160 C.3   100  LYS100      0.0206
     23  CE         3.4680  -37.1360   16.0700 C.3   100  LYS100      0.1093
     24  NZ         4.3880  -38.2390   15.6720 N.3   100  LYS100     -0.1314
     25  N         -2.6030  -34.6950   16.3530 N.am  101  LYS101     -0.1963
     26  CA        -3.9840  -34.9510   16.7320 C.3   101  LYS101      0.1728
     27  C         -4.2370  -36.4400   16.9560 C.2   101  LYS101      0.2616
     28  O         -4.1340  -37.2420   16.0280 O.2   101  LYS101     -0.2715
     29  CB        -4.9350  -34.4250   15.6560 C.3   101  LYS101      0.0311
     30  CG        -6.3870  -34.3340   16.1120 C.3   101  LYS101      0.0038
     31  CD        -7.3570  -34.7050   15.0000 C.3   101  LYS101      0.0206
     32  CE        -7.1030  -33.9000   13.7380 C.3   101  LYS101      0.1093
     33  NZ        -8.3140  -33.1500   13.3220 N.3   101  LYS101     -0.1314
     34  N         -4.5450  -36.8070   18.1950 N.am  102  LYS102     -0.1963
     35  CA        -4.8200  -38.1970   18.5260 C.3   102  LYS102      0.1728
     36  C         -6.3110  -38.4040   18.7250 C.2   102  LYS102      0.2616
     37  O         -6.9540  -37.6470   19.4500 O.2   102  LYS102     -0.2715
     38  CB        -4.0320  -38.6220   19.7660 C.3   102  LYS102      0.0311
     39  CG        -2.5320  -38.6910   19.5200 C.3   102  LYS102      0.0038
     40  CD        -2.2250  -39.5940   18.3340 C.3   102  LYS102      0.0206
     41  CE        -0.7630  -39.5330   17.9440 C.3   102  LYS102      0.1093
     42  NZ        -0.4870  -40.3760   16.7500 N.3   102  LYS102     -0.1314
     43  N         -6.8470  -39.4390   18.0830 N.am  103  LYS103     -0.1963
     44  CA        -8.2720  -39.7590   18.1470 C.3   103  LYS103      0.1728
     45  C         -8.8050  -39.8290   19.5730 C.2   103  LYS103      0.2617
     46  O         -9.8950  -39.3270   19.8720 O.2   103  LYS103     -0.2715
     47  CB        -8.5420  -41.0780   17.4300 C.3   103  LYS103      0.0311
     48  CG        -9.9670  -41.2240   16.9480 C.3   103  LYS103      0.0038
     49  CD       -10.0070  -41.4860   15.4520 C.3   103  LYS103      0.0206
     50  CE        -9.2000  -40.4450   14.6880 C.3   103  LYS103      0.1093
     51  NZ        -9.3240  -40.6000   13.2140 N.3   103  LYS103     -0.1314
     52  N         -8.0340  -40.4660   20.4450 N.am  104  SER104     -0.1936
     53  CA        -8.4180  -40.6020   21.8400 C.3   104  SER104      0.2055
     54  C         -7.2180  -40.2600   22.7010 C.2   104  SER104      0.2642
     55  O         -6.0960  -40.6890   22.4150 O.2   104  SER104     -0.2714
     56  CB        -8.8560  -42.0350   22.1350 C.3   104  SER104      0.2130
     57  OG        -9.9350  -42.4330   21.3130 O.3   104  SER104     -0.2179
     58  N         -7.4550  -39.4960   23.7580 N.am  105  VAL105     -0.1977
     59  CA        -6.3950  -39.0950   24.6720 C.3   105  VAL105      0.1596
     60  C         -6.8130  -39.4320   26.0970 C.2   105  VAL105      0.2287
     61  O         -8.0080  -39.5190   26.3960 O.2   105  VAL105     -0.2864
     62  CB        -6.1140  -37.5870   24.5540 C.3   105  VAL105      0.0276
     63  CG1       -4.9630  -37.1810   25.4720 C.3   105  VAL105      0.0022
     64  CG2       -5.8080  -37.2350   23.1090 C.3   105  VAL105      0.0022
     65  N          1.1120  -43.0410   21.9570 N.3   178  VAL178     -0.1245
     66  CA         2.0580  -42.0030   22.3400 C.3   178  VAL178      0.1561
     67  C          1.9200  -41.6580   23.8260 C.2   178  VAL178      0.2260
     68  O          0.8660  -41.1940   24.2680 O.2   178  VAL178     -0.2867
     69  CB         1.8330  -40.7190   21.4940 C.3   178  VAL178      0.0252
     70  CG1        2.7860  -39.6000   21.9320 C.3   178  VAL178      0.0019
     71  CG2        1.9980  -41.0310   20.0090 C.3   178  VAL178      0.0019
     72  N          3.3540  -39.5320   27.2190 N.3   180  TYR180     -0.1241
     73  CA         4.0840  -38.3360   27.6060 C.3   180  TYR180      0.1605
     74  C          4.1630  -38.2280   29.1210 C.2   180  TYR180      0.2264
     75  O          3.1440  -38.2490   29.8080 O.2   180  TYR180     -0.2867
     76  CB         3.3950  -37.0950   27.0350 C.3   180  TYR180      0.0534
     77  CG         3.9320  -35.7980   27.5820 C.ar  180  TYR180     -0.0201
     78  CD1        5.2690  -35.4410   27.3990 C.ar  180  TYR180     -0.0009
     79  CD2        3.1130  -34.9350   28.3050 C.ar  180  TYR180     -0.0009
     80  CE1        5.7750  -34.2600   27.9240 C.ar  180  TYR180      0.0417
     81  CE2        3.6070  -33.7510   28.8320 C.ar  180  TYR180      0.0417
     82  CZ         4.9400  -33.4190   28.6410 C.ar  180  TYR180      0.1957
     83  OH         5.4330  -32.2450   29.1650 O.3   180  TYR180     -0.2866
     84  N          0.4020  -38.5590   29.8400 N.3   187  TYR187     -0.1241
     85  CA        -0.6170  -38.1980   28.8620 C.3   187  TYR187      0.1605
     86  C         -0.5420  -39.1780   27.7090 C.2   187  TYR187      0.2264
     87  O          0.2730  -39.0240   26.7990 O.2   187  TYR187     -0.2867
     88  CB        -0.4140  -36.7610   28.3840 C.3   187  TYR187      0.0534
     89  CG        -0.6210  -35.7470   29.4860 C.ar  187  TYR187     -0.0201
     90  CD1        0.3870  -35.4820   30.4200 C.ar  187  TYR187     -0.0009
     91  CD2       -1.8380  -35.0800   29.6220 C.ar  187  TYR187     -0.0009
     92  CE1        0.1850  -34.5820   31.4610 C.ar  187  TYR187      0.0417
     93  CE2       -2.0490  -34.1750   30.6600 C.ar  187  TYR187      0.0417
     94  CZ        -1.0350  -33.9340   31.5780 C.ar  187  TYR187      0.1957
     95  OH        -1.2540  -33.0580   32.6190 O.3   187  TYR187     -0.2866
     96  N         -2.0670  -40.8730   24.4710 N.3   189  GLY189     -0.1225
     97  CA        -3.0070  -40.6790   23.3820 C.3   189  GLY189      0.1811
     98  C         -2.6860  -41.5650   22.1920 C.2   189  GLY189      0.2280
     99  O         -1.5200  -41.8370   21.9080 O.2   189  GLY189     -0.2866
    100  N        -10.7900  -34.9670   33.4700 N.3   223  GLU223     -0.1231
    101  CA       -11.5860  -35.2830   32.2760 C.3   223  GLU223      0.1684
    102  C        -11.7800  -34.3600   31.0390 C.2   223  GLU223      0.2434
    103  O        -11.3950  -34.7330   29.9340 O.2   223  GLU223     -0.2733
    104  CB       -12.8920  -35.9580   32.7120 C.3   223  GLU223      0.0402
    105  CG       -12.8200  -37.4770   32.7250 C.3   223  GLU223      0.1161
    106  CD       -12.0390  -38.0120   31.5160 C.2   223  GLU223      0.3649
    107  OE1      -12.5540  -37.9080   30.3790 O.co2 223  GLU223     -0.2457
    108  OE2      -10.9000  -38.4900   31.7120 O.co2 223  GLU223     -0.2457
    109  N        -12.4040  -33.1730   31.2060 N.am  224  PRO224     -0.2718
    110  CA       -12.6340  -32.2580   30.0770 C.3   224  PRO224      0.1520
    111  C        -11.3700  -31.7310   29.3690 C.2   224  PRO224      0.2440
    112  O        -10.2760  -32.2730   29.5780 O.2   224  PRO224     -0.2731
    113  CB       -13.4480  -31.1450   30.7410 C.3   224  PRO224      0.0310
    114  CG       -12.8950  -31.0780   32.0810 C.3   224  PRO224      0.0237
    115  CD       -12.8070  -32.5490   32.4660 C.3   224  PRO224      0.0939
    116  N        -11.5110  -30.7030   28.4870 N.am  225  PRO225     -0.2716
    117  CA       -10.3420  -30.1720   27.7860 C.3   225  PRO225      0.1536
    118  C         -9.1940  -29.9450   28.7310 C.2   225  PRO225      0.2598
    119  O         -9.2970  -29.1740   29.6890 O.2   225  PRO225     -0.2715
    120  CB       -10.8620  -28.8560   27.1830 C.3   225  PRO225      0.0310
    121  CG       -12.1560  -28.5860   27.8780 C.3   225  PRO225      0.0237
    122  CD       -12.7060  -29.9660   28.0530 C.3   225  PRO225      0.0939
    123  N         -8.1000  -30.6400   28.4460 N.am  226  PHE226     -0.1974
    124  CA        -6.9090  -30.5770   29.2730 C.3   226  PHE226      0.1639
    125  C         -6.3190  -29.1780   29.3830 C.2   226  PHE226      0.2290
    126  O         -5.7440  -28.6540   28.4310 O.2   226  PHE226     -0.2864
    127  CB        -5.8820  -31.5950   28.7680 C.3   226  PHE226      0.0560
    128  CG        -6.4640  -32.9730   28.5810 C.ar  226  PHE226     -0.0200
    129  CD1       -6.9680  -33.6800   29.6670 C.ar  226  PHE226     -0.0042
    130  CD2       -6.5880  -33.5220   27.3090 C.ar  226  PHE226     -0.0042
    131  CE1       -7.6030  -34.9080   29.4890 C.ar  226  PHE226     -0.0003
    132  CE2       -7.2220  -34.7520   27.1190 C.ar  226  PHE226     -0.0003
    133  CZ        -7.7320  -35.4450   28.2140 C.ar  226  PHE226     -0.0000
    134  N         -3.8020  -27.3860   29.9580 N.3   228  TRP228     -0.1241
    135  CA        -2.3610  -27.5110   30.0150 C.3   228  TRP228      0.1605
    136  C         -1.6780  -26.1570   29.9130 C.2   228  TRP228      0.2264
    137  O         -1.3890  -25.6640   28.8250 O.2   228  TRP228     -0.2867
    138  CB        -1.8850  -28.4510   28.9130 C.3   228  TRP228      0.0550
    139  CG        -0.5250  -29.0050   29.1450 C.ar  228  TRP228      0.0003
    140  CD1       -0.0550  -29.5790   30.2920 C.ar  228  TRP228      0.0946
    141  CD2        0.5580  -29.0210   28.2120 C.ar  228  TRP228      0.0152
    142  NE1        1.2610  -29.9460   30.1330 N.ar  228  TRP228     -0.2442
    143  CE2        1.6610  -29.6150   28.8610 C.ar  228  TRP228      0.0810
    144  CE3        0.7060  -28.5880   26.8870 C.ar  228  TRP228      0.0012
    145  CZ2        2.8990  -29.7910   28.2360 C.ar  228  TRP228      0.0191
    146  CZ3        1.9320  -28.7600   26.2640 C.ar  228  TRP228      0.0001
    147  CH2        3.0110  -29.3560   26.9400 C.ar  228  TRP228      0.0015
    148  N         -6.9930  -27.9900   25.5920 N.3   233  LEU233     -0.1231
    149  CA        -6.8560  -28.8660   24.4480 C.3   233  LEU233      0.1693
    150  C         -8.1140  -29.6320   24.1160 C.2   233  LEU233      0.2592
    151  O         -8.5600  -30.4780   24.8820 O.2   233  LEU233     -0.2718
    152  CB        -5.6800  -29.8180   24.6340 C.3   233  LEU233      0.0284
    153  CG        -4.2830  -29.1940   24.5020 C.3   233  LEU233      0.0019
    154  CD1       -3.8750  -28.5400   25.8040 C.3   233  LEU233      0.0001
    155  CD2       -3.2750  -30.2550   24.1240 C.3   233  LEU233      0.0001
    156  N         -8.6940  -29.2970   22.9700 N.am  234  HIS234     -0.1962
    157  CA        -9.9070  -29.9370   22.4790 C.3   234  HIS234      0.1772
    158  C         -9.4900  -30.9460   21.4090 C.2   234  HIS234      0.2462
    159  O         -8.3490  -30.9430   20.9510 O.2   234  HIS234     -0.2730
    160  CB       -10.8430  -28.9040   21.8340 C.3   234  HIS234      0.0785
    161  CG       -11.2830  -27.8060   22.7550 C.ar  234  HIS234      0.0821
    162  ND1      -12.5110  -27.1970   22.6370 N.ar  234  HIS234     -0.2267
    163  CD2      -10.6560  -27.2070   23.7930 C.ar  234  HIS234      0.1154
    164  CE1      -12.6260  -26.2690   23.5670 C.ar  234  HIS234      0.1986
    165  NE2      -11.5170  -26.2520   24.2820 N.ar  234  HIS234     -0.2212
    166  N        -10.4170  -31.8100   20.9780 N.am  235  PRO235     -0.2727
    167  CA       -10.0960  -32.8060   19.9450 C.3   235  PRO235      0.1402
    168  C         -9.8800  -32.1800   18.5740 C.2   235  PRO235      0.2269
    169  O         -9.0560  -32.6170   17.7820 O.2   235  PRO235     -0.2865
    170  CB       -11.3420  -33.6930   19.9330 C.3   235  PRO235      0.0296
    171  CG       -12.4360  -32.7800   20.4070 C.3   235  PRO235      0.0237
    172  CD       -11.7750  -32.0150   21.5130 C.3   235  PRO235      0.0939
    173  N         -3.7660  -28.7240   15.5380 N.3   316  TYR316     -0.1241
    174  CA        -2.7020  -29.6860   15.8280 C.3   316  TYR316      0.1605
    175  C         -1.8530  -30.0080   14.6060 C.2   316  TYR316      0.2264
    176  O         -2.2210  -29.6790   13.4770 O.2   316  TYR316     -0.2867
    177  CB        -3.2860  -30.9600   16.4330 C.3   316  TYR316      0.0534
    178  CG        -3.9270  -30.7320   17.7840 C.ar  316  TYR316     -0.0201
    179  CD1       -3.1510  -30.4210   18.8990 C.ar  316  TYR316     -0.0009
    180  CD2       -5.3050  -30.8190   17.9490 C.ar  316  TYR316     -0.0009
    181  CE1       -3.7330  -30.2060   20.1470 C.ar  316  TYR316      0.0417
    182  CE2       -5.8960  -30.6070   19.1920 C.ar  316  TYR316      0.0417
    183  CZ        -5.1040  -30.3010   20.2850 C.ar  316  TYR316      0.1957
    184  OH        -5.6800  -30.1010   21.5150 O.3   316  TYR316     -0.2866
@<TRIPOS>BOND
     1    51    50    1
     2    33    32    1
     3   176   175    2
     4    32    31    1
     5   175   174    1
     6    50    49    1
     7    22    21    1
     8    22    23    1
     9    31    30    1
    10    21    20    1
    11    49    48    1
    12   173   174    1
    13    29    30    1
    14    29    26    1
    15    24    23    1
    16   174   177    1
    17    28    27    2
    18    20    17    1
    19    25    26    1
    20    25    18   am
    21   177   178    1
    22    17    18    1
    23    17    16    1
    24    26    27    1
    25    42    41    1
    26    48    47    1
    27    27    34   am
    28    18    19    2
    29    11    10    2
    30    47    44    1
    31    16    10   am
    32   169   168    2
    33   178   180   ar
    34   178   179   ar
    35    41    40    1
    36    10     9    1
    37   180   182   ar
    38    43    44    1
    39    43    36   am
    40    44    45    1
    41    34    35    1
    42    40    39    1
    43    35    36    1
    44    35    38    1
    45   168   167    1
    46    36    37    2
    47     8     9    1
    48   179   181   ar
    49     9    12    1
    50   182   183   ar
    51    39    38    1
    52    45    46    2
    53    45    52   am
    54   170   167    1
    55   170   171    1
    56   167   166    1
    57    71    69    1
    58   181   183   ar
    59   183   184    1
    60    12    13    1
    61   171   172    1
    62    52    53    1
    63   159   158    2
    64   166   158   am
    65   166   172    1
    66    57    56    1
    67   158   157    1
    68    69    70    1
    69    69    66    1
    70    13    15    1
    71    13    14    1
    72   160   157    1
    73   160   161    1
    74    53    56    1
    75    53    54    1
    76    99    98    2
    77    65    66    1
    78    98    97    1
    79    66    67    1
    80    55    54    2
    81   157   156    1
    82   162   161   ar
    83   162   164   ar
    84    54    58   am
    85   161   163   ar
    86   156   150   am
    87    64    62    1
    88    97    96    1
    89   164   165   ar
    90    58    59    1
    91   163   165   ar
    92    67    68    2
    93   150   149    1
    94   150   151    2
    95   155   153    1
    96     3     2    1
    97     3     4    2
    98     5     2    1
    99     5     6    1
   100   149   152    1
   101   149   148    1
   102     2     1    1
   103   153   152    1
   104   153   154    1
   105    62    59    1
   106    62    63    1
   107    59    60    1
   108     6     7    1
   109     1     7    1
   110    60    61    2
   111   146   144   ar
   112   146   147   ar
   113    87    86    2
   114   144   141   ar
   115   147   145   ar
   116    76    77    1
   117    76    73    1
   118   132   130   ar
   119   132   133   ar
   120   120   117    1
   121   120   121    1
   122    72    73    1
   123   130   128   ar
   124    78    77   ar
   125    78    80   ar
   126    77    79   ar
   127    73    74    1
   128    86    85    1
   129   117   116    1
   130   117   118    1
   131   121   122    1
   132    80    82   ar
   133   122   116    1
   134   141   143   ar
   135   141   139   ar
   136   133   131   ar
   137   145   143   ar
   138    79    81   ar
   139    88    85    1
   140    88    89    1
   141   126   125    2
   142   123   118   am
   143   123   124    1
   144   116   111   am
   145   128   127    1
   146   128   129   ar
   147    82    81   ar
   148    82    83    1
   149   118   119    2
   150   127   124    1
   151   137   136    2
   152   143   142   ar
   153    85    84    1
   154   138   139    1
   155   138   135    1
   156    74    75    2
   157   139   140   ar
   158   124   125    1
   159   111   112    2
   160   111   110    1
   161    89    91   ar
   162    89    90   ar
   163   131   129   ar
   164    91    93   ar
   165   136   135    1
   166   103   102    2
   167   134   135    1
   168   110   113    1
   169   110   109    1
   170   142   140   ar
   171   107   106   ar
   172    90    92   ar
   173    93    94   ar
   174   113   114    1
   175   102   109   am
   176   102   101    1
   177   109   115    1
   178    92    94   ar
   179   106   108   ar
   180   106   105    1
   181    94    95    1
   182   114   115    1
   183   101   104    1
   184   101   100    1
   185   104   105    1
