@<TRIPOS>MOLECULE
tmp/1kltA00.pdb
 116 114 0 0 0
SMALL
GASTEIGER

@<TRIPOS>ATOM
      1  N          8.8620   33.3280   23.0700 N.3    28  LYS28      -0.1231
      2  CA         8.4090   33.7120   21.7420 C.3    28  LYS28       0.1693
      3  C          7.8940   32.3790   21.2370 C.2    28  LYS28       0.2592
      4  O          8.1220   31.3630   21.8800 O.2    28  LYS28      -0.2718
      5  CB         9.5770   34.2150   20.8760 C.3    28  LYS28       0.0285
      6  CG        10.6660   33.1990   20.5730 C.3    28  LYS28       0.0035
      7  CD        11.6340   33.7440   19.5380 C.3    28  LYS28       0.0206
      8  CE        12.5070   32.6140   18.9700 C.3    28  LYS28       0.1093
      9  NZ        13.9290   32.6260   19.4670 N.3    28  LYS28      -0.1314
     10  N          7.2240   32.3420   20.1010 N.am   29  PHE29      -0.1962
     11  CA         6.7290   31.0580   19.6340 C.3    29  PHE29       0.1771
     12  C          7.0190   30.8190   18.1780 C.2    29  PHE29       0.2619
     13  O          7.3030   31.7500   17.4560 O.2    29  PHE29      -0.2715
     14  CB         5.2240   30.9110   19.8970 C.3    29  PHE29       0.0574
     15  CG         4.3570   31.9060   19.1500 C.ar   29  PHE29      -0.0200
     16  CD1        4.0540   33.1490   19.7260 C.ar   29  PHE29      -0.0042
     17  CD2        3.7280   31.5390   17.9440 C.ar   29  PHE29      -0.0042
     18  CE1        3.1270   34.0100   19.1330 C.ar   29  PHE29      -0.0003
     19  CE2        2.8170   32.3640   17.3490 C.ar   29  PHE29      -0.0003
     20  CZ         2.4970   33.6220   17.9440 C.ar   29  PHE29      -0.0000
     21  N          6.9090   29.5780   17.7470 N.am   30  CYS30      -0.1968
     22  CA         7.1300   29.2530   16.3480 C.3    30  CYS30       0.1712
     23  C          6.3420   28.0470   15.9490 C.2    30  CYS30       0.2296
     24  O          5.8370   27.3150   16.8060 O.2    30  CYS30      -0.2864
     25  CB         8.5720   28.8980   16.0960 C.3    30  CYS30       0.0983
     26  SG         9.7370   30.2410   16.0210 S.3    30  CYS30      -0.0798
     27  N         16.0960   30.2150   13.4100 N.3    45  HIS45      -0.1241
     28  CA        15.6980   31.4710   14.0070 C.3    45  HIS45       0.1621
     29  C         14.7410   31.2290   15.2030 C.2    45  HIS45       0.2264
     30  O         14.3490   32.1530   15.8990 O.2    45  HIS45      -0.2867
     31  CB        15.0040   32.2190   12.9020 C.3    45  HIS45       0.0745
     32  CG        14.5630   33.5960   13.2450 C.ar   45  HIS45       0.0817
     33  ND1       13.4650   34.1750   12.6520 N.ar   45  HIS45      -0.2268
     34  CD2       15.1340   34.5590   14.0100 C.ar   45  HIS45       0.1154
     35  CE1       13.3870   35.4440   13.0210 C.ar   45  HIS45       0.1986
     36  NE2       14.3900   35.7010   13.8440 N.ar   45  HIS45      -0.2212
     37  N          2.6370   34.7550    5.2860 N.3   177  ALA177     -0.1231
     38  CA         2.9430   34.1310    6.5860 C.3   177  ALA177      0.1694
     39  C          3.5530   35.3510    7.2990 C.2   177  ALA177      0.2592
     40  O          4.0460   36.2450    6.6310 O.2   177  ALA177     -0.2718
     41  CB         3.9740   33.0040    6.4160 C.3   177  ALA177      0.0304
     42  N          3.5070   35.4130    8.6270 N.am  178  PHE178     -0.1962
     43  CA         4.0390   36.5760    9.3260 C.3   178  PHE178      0.1771
     44  C          4.6330   36.1530   10.6890 C.2   178  PHE178      0.2619
     45  O          4.7540   34.9600   10.9600 O.2   178  PHE178     -0.2715
     46  CB         2.9520   37.6740    9.4100 C.3   178  PHE178      0.0574
     47  CG         3.4840   39.0550    9.7570 C.ar  178  PHE178     -0.0200
     48  CD1        4.6390   39.5550    9.1630 C.ar  178  PHE178     -0.0042
     49  CD2        2.8950   39.8030   10.7740 C.ar  178  PHE178     -0.0042
     50  CE1        5.2150   40.7870    9.5930 C.ar  178  PHE178     -0.0003
     51  CE2        3.4690   41.0170   11.1940 C.ar  178  PHE178     -0.0003
     52  CZ         4.6260   41.4980   10.6070 C.ar  178  PHE178     -0.0000
     53  N          5.0260   37.1100   11.5280 N.am  179  LYS179     -0.1963
     54  CA         5.6730   36.8280   12.8150 C.3   179  LYS179      0.1728
     55  C          4.8850   35.8290   13.5470 C.2   179  LYS179      0.2616
     56  O          3.6880   35.9980   13.6540 O.2   179  LYS179     -0.2715
     57  CB         5.7170   38.0640   13.6570 C.3   179  LYS179      0.0311
     58  CG         6.5460   39.1730   13.0980 C.3   179  LYS179      0.0038
     59  CD         6.5170   40.2990   14.1270 C.3   179  LYS179      0.0206
     60  CE         6.7330   39.7680   15.6300 C.3   179  LYS179      0.1093
     61  NZ         6.4560   40.8110   16.7270 N.3   179  LYS179     -0.1314
     62  N          5.5440   34.8090   14.0820 N.am  180  GLY180     -0.1955
     63  CA         4.8500   33.7500   14.7720 C.3   180  GLY180      0.1869
     64  C          4.7720   32.5150   13.8790 C.2   180  GLY180      0.2309
     65  O          4.8290   31.4130   14.3740 O.2   180  GLY180     -0.2863
     66  N          7.0260   31.5800   11.7430 N.3   182  SER182     -0.1217
     67  CA         8.3630   31.0790   11.5380 C.3   182  SER182      0.1889
     68  C          8.4920   29.5930   11.8900 C.2   182  SER182      0.2288
     69  O          7.9400   29.1480   12.8740 O.2   182  SER182     -0.2866
     70  CB         9.3240   31.9550   12.3560 C.3   182  SER182      0.2089
     71  OG         9.3000   33.2340   11.7840 O.3   182  SER182     -0.2183
     72  N          8.8840   28.5490    6.7210 N.3   196  VAL196     -0.1231
     73  CA         8.7750   29.9890    6.8500 C.3   196  VAL196      0.1692
     74  C         10.0560   30.4780    7.5320 C.2   196  VAL196      0.2593
     75  O         10.4340   29.9590    8.5890 O.2   196  VAL196     -0.2718
     76  CB         7.5850   30.3720    7.7000 C.3   196  VAL196      0.0266
     77  CG1        7.3940   31.8970    7.6600 C.3   196  VAL196      0.0020
     78  CG2        6.3750   29.6400    7.2120 C.3   196  VAL196      0.0020
     79  N         10.7330   31.4410    6.9120 N.am  197  SER197     -0.1938
     80  CA        11.9640   31.9760    7.4610 C.3   197  SER197      0.2055
     81  C         11.8360   33.4590    7.8390 C.2   197  SER197      0.2643
     82  O         11.9650   33.8370    9.0380 O.2   197  SER197     -0.2714
     83  CB        13.0890   31.7570    6.4580 C.3   197  SER197      0.2130
     84  OG        14.2190   32.5720    6.7400 O.3   197  SER197     -0.2179
     85  N         11.6680   34.3080    6.8190 N.am  198  TYR198     -0.1959
     86  CA        11.5070   35.7490    7.0300 C.3   198  TYR198      0.1771
     87  C         10.7630   36.5380    5.9280 C.2   198  TYR198      0.2620
     88  O         10.1790   35.9590    4.9930 O.2   198  TYR198     -0.2715
     89  CB        12.8300   36.4300    7.4420 C.3   198  TYR198      0.0574
     90  CG        13.8650   36.6380    6.3500 C.ar  198  TYR198     -0.0198
     91  CD1       14.6670   35.5830    5.8800 C.ar  198  TYR198     -0.0009
     92  CD2       14.0210   37.8930    5.7750 C.ar  198  TYR198     -0.0009
     93  CE1       15.5820   35.7910    4.8570 C.ar  198  TYR198      0.0417
     94  CE2       14.9280   38.1190    4.7720 C.ar  198  TYR198      0.0417
     95  CZ        15.7080   37.0770    4.3060 C.ar  198  TYR198      0.1957
     96  OH        16.6260   37.3680    3.3120 O.3   198  TYR198     -0.2866
     97  N         10.6250   37.8390    6.1640 N.am  199  GLY199     -0.1940
     98  CA         9.9530   38.7140    5.2260 C.3   199  GLY199      0.2014
     99  C         10.0470   40.1090    5.7810 C.2   199  GLY199      0.2638
    100  O         10.7920   40.3410    6.7240 O.2   199  GLY199     -0.2714
    101  N          9.2940   41.0350    5.2140 N.am  200  ARG200     -0.1977
    102  CA         9.2830   42.4050    5.6710 C.3   200  ARG200      0.1597
    103  C          8.5150   42.6740    6.9990 C.2   200  ARG200      0.2287
    104  O          7.5520   42.0140    7.3380 O.2   200  ARG200     -0.2864
    105  CB         8.7100   43.2810    4.5580 C.3   200  ARG200      0.0334
    106  CG         9.5130   43.2300    3.2930 C.3   200  ARG200      0.0492
    107  CD         8.6920   43.6070    2.0890 C.3   200  ARG200      0.2205
    108  NE         8.1690   44.9730    2.1260 N.pl3 200  ARG200     -0.0865
    109  CZ         8.8670   46.0690    1.8440 C.cat 200  ARG200      0.5346
    110  NH1       10.1560   45.9980    1.5280 N.pl3 200  ARG200      0.1354
    111  NH2        8.2640   47.2500    1.8960 N.pl3 200  ARG200      0.1354
    112  N          7.4170   36.5930    1.0220 N.3   207  ALA207     -0.1245
    113  CA         8.2080   36.3170    2.2120 C.3   207  ALA207      0.1562
    114  C          9.1640   35.2150    1.7450 C.2   207  ALA207      0.2260
    115  O          8.8370   34.4570    0.8090 O.2   207  ALA207     -0.2867
    116  CB         7.3040   35.7980    3.3450 C.3   207  ALA207      0.0290
@<TRIPOS>BOND
     1   115   114    2
     2   112   113    1
     3   110   109    1
     4   114   113    1
     5   109   111    1
     6   109   108    2
     7   107   108    1
     8   107   106    1
     9   113   116    1
    10   106   105    1
    11    96    95    1
    12    95    94   ar
    13    95    93   ar
    14   105   102    1
    15    94    92   ar
    16    93    91   ar
    17    88    87    2
    18   101   102    1
    19   101    99   am
    20    98    99    1
    21    98    97    1
    22    37    38    1
    23   102   103    1
    24    92    90   ar
    25    99   100    2
    26    91    90   ar
    27    87    97   am
    28    87    86    1
    29    90    89    1
    30    41    38    1
    31    83    84    1
    32    83    80    1
    33    38    39    1
    34    40    39    2
    35    72    73    1
    36    85    86    1
    37    85    81   am
    38    73    74    1
    39    73    76    1
    40    79    80    1
    41    79    74   am
    42   103   104    2
    43    86    89    1
    44    78    76    1
    45    39    42   am
    46    80    81    1
    47    74    75    2
    48    77    76    1
    49    81    82    2
    50    42    43    1
    51    48    50   ar
    52    48    47   ar
    53    43    46    1
    54    43    44    1
    55    46    47    1
    56    50    52   ar
    57    47    49   ar
    58    52    51   ar
    59    44    45    2
    60    44    53   am
    61    49    51   ar
    62    53    54    1
    63    67    66    1
    64    67    68    1
    65    67    70    1
    66    71    70    1
    67    68    69    2
    68    33    35   ar
    69    33    32   ar
    70    54    55    1
    71    54    57    1
    72    31    32    1
    73    31    28    1
    74    35    36   ar
    75    58    57    1
    76    58    59    1
    77    32    34   ar
    78    27    28    1
    79    55    56    2
    80    55    62   am
    81    36    34   ar
    82    64    65    2
    83    64    63    1
    84    28    29    1
    85    62    63    1
    86    59    60    1
    87    29    30    2
    88    60    61    1
    89    23    22    1
    90    23    24    2
    91    26    25    1
    92    25    22    1
    93    22    21    1
    94    19    17   ar
    95    19    20   ar
    96    13    12    2
    97    21    12   am
    98    17    15   ar
    99    20    18   ar
   100    12    11    1
   101     8     9    1
   102     8     7    1
   103    18    16   ar
   104    15    16   ar
   105    15    14    1
   106     7     6    1
   107    11    14    1
   108    11    10    1
   109    10     3   am
   110     6     5    1
   111     5     2    1
   112     3     2    1
   113     3     4    2
   114     2     1    1
