@<TRIPOS>MOLECULE
tmp/1klyA00.pdb
 111 105 0 0 0
SMALL
GASTEIGER

@<TRIPOS>ATOM
      1  N         34.6830   35.0330   40.8650 N.3     8  ALA8       -0.1245
      2  CA        34.7330   36.3200   40.1550 C.3     8  ALA8        0.1562
      3  C         33.5370   36.2510   39.2000 C.2     8  ALA8        0.2260
      4  O         33.5720   35.5470   38.1740 O.2     8  ALA8       -0.2867
      5  CB        36.0460   36.4600   39.3470 C.3     8  ALA8        0.0290
      6  N         31.8360   37.7100   36.5420 N.3    10  ASP10      -0.1239
      7  CA        31.9680   38.6400   35.4300 C.3    10  ASP10       0.1674
      8  C         31.0190   38.4100   34.2680 C.2    10  ASP10       0.2266
      9  O         31.2710   38.8870   33.1740 O.2    10  ASP10      -0.2867
     10  CB        33.4140   38.6780   34.9350 C.3    10  ASP10       0.1410
     11  CG        34.3760   39.1620   36.0030 C.2    10  ASP10       0.3668
     12  OD1       34.1100   40.2170   36.6170 O.co2  10  ASP10      -0.2456
     13  OD2       35.3950   38.4750   36.2070 O.co2  10  ASP10      -0.2456
     14  N         33.2850   38.1900   44.1200 N.3    32  LYS32      -0.1245
     15  CA        33.9040   39.4180   43.6220 C.3    32  LYS32       0.1561
     16  C         33.0420   39.8860   42.4480 C.2    32  LYS32       0.2260
     17  O         32.8860   39.1540   41.4630 O.2    32  LYS32      -0.2867
     18  CB        35.3290   39.1760   43.1170 C.3    32  LYS32       0.0271
     19  CG        35.9940   40.4770   42.6610 C.3    32  LYS32       0.0035
     20  CD        37.4710   40.2620   42.4530 C.3    32  LYS32       0.0206
     21  CE        37.7650   39.4810   41.1950 C.3    32  LYS32       0.1093
     22  NZ        37.7840   40.3380   39.9780 N.3    32  LYS32      -0.1314
     23  N         39.3810   47.9050   40.6640 N.3    62  LYS62      -0.1245
     24  CA        40.7130   48.3480   40.2280 C.3    62  LYS62       0.1561
     25  C         40.8220   49.8600   40.3280 C.2    62  LYS62       0.2260
     26  O         41.3110   50.4980   39.3990 O.2    62  LYS62      -0.2867
     27  CB        40.9370   47.9990   38.7490 C.3    62  LYS62       0.0271
     28  CG        40.8590   46.5490   38.3710 C.3    62  LYS62       0.0035
     29  CD        42.0900   45.8000   38.7850 C.3    62  LYS62       0.0206
     30  CE        42.0470   44.3940   38.2270 C.3    62  LYS62       0.1093
     31  NZ        40.8040   43.6830   38.6310 N.3    62  LYS62      -0.1314
     32  N         44.0570   36.0550   41.8230 N.3   170  PRO170     -0.2102
     33  CA        43.3380   35.7260   40.5850 C.3   170  PRO170      0.1504
     34  C         44.3290   35.2040   39.5530 C.2   170  PRO170      0.2576
     35  O         45.5570   35.2810   39.7290 O.2   170  PRO170     -0.2718
     36  CB        42.7330   37.0620   40.1790 C.3   170  PRO170      0.0282
     37  CG        43.8620   38.0370   40.5310 C.3   170  PRO170      0.0208
     38  CD        44.3810   37.5000   41.8790 C.3   170  PRO170      0.0893
     39  N         43.7850   34.7040   38.4530 N.am  171  GLY171     -0.1943
     40  CA        44.6080   34.1350   37.4070 C.3   171  GLY171      0.2014
     41  C         44.6000   32.6120   37.4530 C.2   171  GLY171      0.2638
     42  O         45.4310   31.9830   36.7910 O.2   171  GLY171     -0.2714
     43  N         43.6890   32.0340   38.2420 N.am  172  VAL172     -0.1977
     44  CA        43.5760   30.5830   38.3830 C.3   172  VAL172      0.1596
     45  C         42.6680   30.0040   37.3140 C.2   172  VAL172      0.2287
     46  O         41.5640   30.4870   37.0950 O.2   172  VAL172     -0.2864
     47  CB        42.9910   30.2230   39.7660 C.3   172  VAL172      0.0276
     48  CG1       42.8140   28.6930   39.9220 C.3   172  VAL172      0.0022
     49  CG2       43.9170   30.7540   40.8680 C.3   172  VAL172      0.0022
     50  N         41.6160   29.7150   33.8270 N.3   174  ALA174     -0.1231
     51  CA        41.7070   30.2650   32.4860 C.3   174  ALA174      0.1694
     52  C         43.0510   30.9100   32.1610 C.2   174  ALA174      0.2591
     53  O         43.5850   30.7080   31.0870 O.2   174  ALA174     -0.2718
     54  CB        40.5710   31.2630   32.2610 C.3   174  ALA174      0.0304
     55  N         43.6030   31.6920   33.0850 N.am  175  GLN175     -0.1979
     56  CA        44.8720   32.3630   32.8390 C.3   175  GLN175      0.1601
     57  C         46.1060   31.4930   33.0200 C.2   175  GLN175      0.2287
     58  O         47.2150   31.9210   32.7030 O.2   175  GLN175     -0.2864
     59  CB        44.9710   33.5990   33.7260 C.3   175  GLN175      0.0394
     60  CG        43.9170   34.6270   33.4190 C.3   175  GLN175      0.0908
     61  CD        44.0470   35.8540   34.3010 C.2   175  GLN175      0.2608
     62  OE1       45.0880   36.5260   34.2930 O.2   175  GLN175     -0.2717
     63  NE2       42.9920   36.1580   35.0720 N.am  175  GLN175     -0.0878
     64  N         40.8930   33.4370   43.5460 N.3   190  ILE190     -0.1231
     65  CA        39.7830   34.0310   42.8140 C.3   190  ILE190      0.1692
     66  C         39.6480   33.2490   41.5120 C.2   190  ILE190      0.2592
     67  O         40.6240   33.0750   40.7940 O.2   190  ILE190     -0.2718
     68  CB        40.0980   35.4880   42.4620 C.3   190  ILE190      0.0266
     69  CG1       40.1070   36.3130   43.7460 C.3   190  ILE190      0.0019
     70  CG2       39.0340   36.0520   41.4610 C.3   190  ILE190      0.0020
     71  CD1       40.7650   37.6660   43.5620 C.3   190  ILE190      0.0001
     72  N         38.4380   32.7780   41.2210 N.am  191  VAL191     -0.1966
     73  CA        38.2060   32.0080   40.0020 C.3   191  VAL191      0.1727
     74  C         36.9640   32.5370   39.3180 C.2   191  VAL191      0.2617
     75  O         35.8900   32.6210   39.9310 O.2   191  VAL191     -0.2715
     76  CB        38.0120   30.4830   40.3020 C.3   191  VAL191      0.0290
     77  CG1       37.7590   29.7090   38.9950 C.3   191  VAL191      0.0023
     78  CG2       39.2560   29.9350   41.0080 C.3   191  VAL191      0.0023
     79  N         37.1340   32.8780   38.0400 N.am  192  GLY192     -0.1940
     80  CA        36.0330   33.3880   37.2350 C.3   192  GLY192      0.2014
     81  C         35.5860   32.4040   36.1750 C.2   192  GLY192      0.2639
     82  O         34.8030   31.5020   36.4580 O.2   192  GLY192     -0.2714
     83  N         36.1350   32.5360   34.9760 N.am  193  ARG193     -0.1963
     84  CA        35.7210   31.7090   33.8440 C.3   193  ARG193      0.1729
     85  C         35.7260   30.2070   34.0200 C.2   193  ARG193      0.2616
     86  O         34.8290   29.5440   33.4710 O.2   193  ARG193     -0.2715
     87  CB        36.5460   32.0590   32.6130 C.3   193  ARG193      0.0348
     88  CG        36.2370   33.4560   32.0400 C.3   193  ARG193      0.0492
     89  CD        37.3210   33.9120   31.0600 C.3   193  ARG193      0.2205
     90  NE        38.5380   34.3330   31.7720 N.pl3 193  ARG193     -0.0865
     91  CZ        39.7160   34.5500   31.2020 C.cat 193  ARG193      0.5346
     92  NH1       39.8550   34.3750   29.8870 N.pl3 193  ARG193      0.1354
     93  NH2       40.7540   34.9610   31.9320 N.pl3 193  ARG193      0.1354
     94  N         36.7060   29.6590   34.7340 N.am  194  SER194     -0.1950
     95  CA        36.7590   28.2000   34.9160 C.3   194  SER194      0.1924
     96  C         35.4920   27.7120   35.5730 C.2   194  SER194      0.2314
     97  O         35.1060   26.5310   35.4050 O.2   194  SER194     -0.2863
     98  CB        37.9730   27.7900   35.7580 C.3   194  SER194      0.2116
     99  OG        39.1690   27.9930   35.0300 O.3   194  SER194     -0.2180
    100  N         32.3500   30.0760   35.8370 N.3   196  TYR196     -0.1241
    101  CA        31.1370   30.5930   35.2040 C.3   196  TYR196      0.1605
    102  C         30.8960   30.2990   33.7380 C.2   196  TYR196      0.2264
    103  O         29.7660   30.4830   33.2640 O.2   196  TYR196     -0.2867
    104  CB        30.9290   32.0950   35.5310 C.3   196  TYR196      0.0534
    105  CG        31.8530   33.0940   34.8570 C.ar  196  TYR196     -0.0201
    106  CD1       31.7700   33.3320   33.4940 C.ar  196  TYR196     -0.0009
    107  CD2       32.7550   33.8410   35.6050 C.ar  196  TYR196     -0.0009
    108  CE1       32.5580   34.2890   32.8680 C.ar  196  TYR196      0.0417
    109  CE2       33.5430   34.7990   35.0080 C.ar  196  TYR196      0.0417
    110  CZ        33.4500   35.0190   33.6370 C.ar  196  TYR196      0.1957
    111  OH        34.2720   35.9350   33.0200 O.3   196  TYR196     -0.2866
@<TRIPOS>BOND
     1    92    91    1
     2    89    90    1
     3    89    88    1
     4    53    52    2
     5    91    90    2
     6    91    93    1
     7    88    87    1
     8    52    51    1
     9    52    55   am
    10    54    51    1
    11    51    50    1
    12    87    84    1
    13    58    57    2
    14    56    57    1
    15    56    55    1
    16    56    59    1
    17   108   106   ar
    18   108   110   ar
    19   111   110    1
    20     9     8    2
    21   103   102    2
    22    60    59    1
    23    60    61    1
    24    86    85    2
    25   106   105   ar
    26   110   109   ar
    27   102   101    1
    28    84    85    1
    29    84    83    1
    30    85    94   am
    31     8     7    1
    32    62    61    2
    33    61    63   am
    34    94    95    1
    35   105   104    1
    36   105   107   ar
    37    95    96    1
    38    95    98    1
    39    10     7    1
    40    10    11    1
    41    83    81   am
    42   109   107   ar
    43    99    98    1
    44   101   104    1
    45   101   100    1
    46    97    96    2
    47     7     6    1
    48    11    13   ar
    49    11    12   ar
    50    81    82    2
    51    81    80    1
    52    42    41    2
    53    46    45    2
    54    80    79    1
    55    45    44    1
    56    40    41    1
    57    40    39    1
    58    41    43   am
    59    79    74   am
    60     4     3    2
    61    30    31    1
    62    30    29    1
    63    43    44    1
    64    28    27    1
    65    28    29    1
    66    44    47    1
    67    39    34   am
    68    27    24    1
    69    77    76    1
    70     3     2    1
    71    74    75    2
    72    74    73    1
    73     5     2    1
    74    26    25    2
    75    34    35    2
    76    34    33    1
    77    47    48    1
    78    47    49    1
    79    22    21    1
    80    73    76    1
    81    73    72    1
    82     2     1    1
    83    36    37    1
    84    36    33    1
    85    24    25    1
    86    24    23    1
    87    76    78    1
    88    37    38    1
    89    33    32    1
    90    67    66    2
    91    21    20    1
    92    72    66   am
    93    70    68    1
    94    17    16    2
    95    66    65    1
    96    32    38    1
    97    16    15    1
    98    20    19    1
    99    68    65    1
   100    68    69    1
   101    19    18    1
   102    65    64    1
   103    18    15    1
   104    71    69    1
   105    15    14    1
