@<TRIPOS>MOLECULE
tmp/1kmeA01.pdb
 81 75 0 0 0
SMALL
GASTEIGER

@<TRIPOS>ATOM
      1  N         33.5660   27.1420   22.0360 N.3    33  PRO33      -0.2116
      2  CA        34.6640   28.0950   22.2390 C.3    33  PRO33       0.1372
      3  C         35.0200   28.8350   20.9490 C.2    33  PRO33       0.2244
      4  O         35.0510   30.0650   20.8990 O.2    33  PRO33      -0.2868
      5  CB        35.8140   27.2050   22.7110 C.3    33  PRO33       0.0268
      6  CG        35.1090   26.0630   23.3850 C.3    33  PRO33       0.0207
      7  CD        33.9740   25.7830   22.4320 C.3    33  PRO33       0.0892
      8  N         32.4920   31.2700   19.6780 N.3    36  LYS36      -0.1231
      9  CA        32.4640   32.4560   20.5220 C.3    36  LYS36       0.1693
     10  C         33.5410   33.4640   20.1230 C.2    36  LYS36       0.2591
     11  O         33.3090   34.6810   20.1300 O.2    36  LYS36      -0.2718
     12  CB        32.6100   32.0570   21.9970 C.3    36  LYS36       0.0285
     13  CG        31.3460   31.4080   22.5740 C.3    36  LYS36       0.0035
     14  CD        31.4540   31.0770   24.0600 C.3    36  LYS36       0.0206
     15  CE        32.5800   30.0980   24.3510 C.3    36  LYS36       0.1093
     16  NZ        32.6000   29.6870   25.7940 N.3    36  LYS36      -0.1314
     17  N         34.7150   32.9600   19.7640 N.am   37  LYS37      -0.1980
     18  CA        35.8050   33.8260   19.3560 C.3    37  LYS37       0.1596
     19  C         35.3770   34.6000   18.1020 C.2    37  LYS37       0.2287
     20  O         35.5710   35.8180   18.0090 O.2    37  LYS37      -0.2864
     21  CB        37.0560   32.9890   19.0930 C.3    37  LYS37       0.0298
     22  CG        38.2320   33.7730   18.5270 C.3    37  LYS37       0.0038
     23  CD        39.5110   32.9280   18.4940 C.3    37  LYS37       0.0206
     24  CE        39.9220   32.4810   19.8980 C.3    37  LYS37       0.1093
     25  NZ        40.3640   33.6490   20.7370 N.3    37  LYS37      -0.1314
     26  N         32.7630   37.3030   19.1600 N.3    40  ALA40      -0.1231
     27  CA        33.2960   38.4720   19.8670 C.3    40  ALA40       0.1694
     28  C         33.9700   39.4280   18.8850 C.2    40  ALA40       0.2591
     29  O         33.7570   40.6410   18.9270 O.2    40  ALA40      -0.2718
     30  CB        34.2890   38.0290   20.9440 C.3    40  ALA40       0.0304
     31  N         34.7800   38.8710   17.9970 N.am   41  ILE41      -0.1980
     32  CA        35.4570   39.6750   16.9950 C.3    41  ILE41       0.1595
     33  C         34.4150   40.3890   16.1310 C.2    41  ILE41       0.2287
     34  O         34.3890   41.6250   16.0470 O.2    41  ILE41      -0.2864
     35  CB        36.3510   38.7920   16.0910 C.3    41  ILE41       0.0276
     36  CG1       37.4680   38.1670   16.9280 C.3    41  ILE41       0.0022
     37  CG2       36.9600   39.6240   14.9740 C.3    41  ILE41       0.0022
     38  CD1       38.3870   37.2250   16.1470 C.3    41  ILE41       0.0001
     39  N         32.3360   43.1320   17.8210 N.3    44  LEU44      -0.1245
     40  CA        33.1580   44.3100   18.0750 C.3    44  LEU44       0.1561
     41  C         33.2230   45.2550   16.8790 C.2    44  LEU44       0.2260
     42  O         33.2350   46.4850   17.0420 O.2    44  LEU44      -0.2867
     43  CB        34.5770   43.8770   18.4390 C.3    44  LEU44       0.0270
     44  CG        35.5400   45.0100   18.7970 C.3    44  LEU44       0.0019
     45  CD1       34.9440   45.8620   19.9270 C.3    44  LEU44       0.0001
     46  CD2       36.8720   44.4170   19.2180 C.3    44  LEU44       0.0001
     47  N         32.2030   49.2120   17.2590 N.3    48  ILE48      -0.1245
     48  CA        33.1590   50.2990   17.0350 C.3    48  ILE48       0.1561
     49  C         32.5760   51.2750   15.9980 C.2    48  ILE48       0.2260
     50  O         32.5200   52.4920   16.2310 O.2    48  ILE48      -0.2867
     51  CB        34.5150   49.7230   16.5190 C.3    48  ILE48       0.0252
     52  CG1       35.1660   48.8820   17.6180 C.3    48  ILE48       0.0019
     53  CG2       35.4520   50.8340   16.0710 C.3    48  ILE48       0.0019
     54  CD1       36.4140   48.1350   17.1540 C.3    48  ILE48       0.0001
     55  N         40.7620   49.9990   13.4620 N.3    84  PHE84      -0.1241
     56  CA        40.5140   48.7790   14.2270 C.3    84  PHE84       0.1605
     57  C         39.5270   47.8210   13.5470 C.2    84  PHE84       0.2264
     58  O         39.6330   46.6010   13.7170 O.2    84  PHE84      -0.2867
     59  CB        39.9780   49.1440   15.6160 C.3    84  PHE84       0.0534
     60  CG        40.7850   50.2010   16.3090 C.ar   84  PHE84      -0.0203
     61  CD1       42.0480   49.9150   16.8030 C.ar   84  PHE84      -0.0042
     62  CD2       40.3140   51.5000   16.3950 C.ar   84  PHE84      -0.0042
     63  CE1       42.8390   50.9240   17.3740 C.ar   84  PHE84      -0.0003
     64  CE2       41.0990   52.5120   16.9630 C.ar   84  PHE84      -0.0003
     65  CZ        42.3560   52.2220   17.4490 C.ar   84  PHE84      -0.0000
     66  N         40.2140   43.6620   12.1020 N.3    88  LEU88      -0.1245
     67  CA        39.3890   42.6500   12.7650 C.3    88  LEU88       0.1561
     68  C         38.6830   41.7960   11.6950 C.2    88  LEU88       0.2260
     69  O         38.5670   40.5790   11.8340 O.2    88  LEU88      -0.2867
     70  CB        38.3630   43.3060   13.7060 C.3    88  LEU88       0.0270
     71  CG        38.9350   43.8620   15.0200 C.3    88  LEU88       0.0019
     72  CD1       37.9010   44.7500   15.7130 C.3    88  LEU88       0.0001
     73  CD2       39.3520   42.7090   15.9300 C.3    88  LEU88       0.0001
     74  N         41.0750   39.3940   10.4140 N.3    91  LEU91      -0.1245
     75  CA        41.3240   38.3550   11.4200 C.3    91  LEU91       0.1561
     76  C         40.2580   37.2610   11.2820 C.2    91  LEU91       0.2260
     77  O         40.5700   36.0610   11.3380 O.2    91  LEU91      -0.2867
     78  CB        41.2710   38.9640   12.8310 C.3    91  LEU91       0.0270
     79  CG        42.2180   38.4730   13.9360 C.3    91  LEU91       0.0019
     80  CD1       41.5910   38.7510   15.2910 C.3    91  LEU91       0.0001
     81  CD2       42.5190   36.9840   13.7910 C.3    91  LEU91       0.0001
@<TRIPOS>BOND
     1    74    75    1
     2    76    77    2
     3    76    75    1
     4    75    78    1
     5    68    69    2
     6    68    67    1
     7    66    67    1
     8    67    70    1
     9    78    79    1
    10    55    56    1
    11    57    58    2
    12    57    56    1
    13    70    71    1
    14    81    79    1
    15    79    80    1
    16    56    59    1
    17    37    35    1
    18    71    72    1
    19    71    73    1
    20    59    60    1
    21    49    50    2
    22    49    48    1
    23    34    33    2
    24    53    51    1
    25    35    36    1
    26    35    32    1
    27    33    32    1
    28    38    36    1
    29    60    62   ar
    30    60    61   ar
    31    62    64   ar
    32    51    48    1
    33    51    52    1
    34    61    63   ar
    35    41    42    2
    36    41    40    1
    37    64    65   ar
    38    32    31    1
    39    48    47    1
    40    54    52    1
    41    63    65   ar
    42    39    40    1
    43    31    28   am
    44    20    19    2
    45    40    43    1
    46    19    18    1
    47    43    44    1
    48    23    22    1
    49    23    24    1
    50    22    21    1
    51    44    46    1
    52    44    45    1
    53    28    29    2
    54    28    27    1
    55    21    18    1
    56    26    27    1
    57    18    17    1
    58     8     9    1
    59    17    10   am
    60    27    30    1
    61    24    25    1
    62    10    11    2
    63    10     9    1
    64     9    12    1
    65     4     3    2
    66     3     2    1
    67    12    13    1
    68     1     2    1
    69     1     7    1
    70     2     5    1
    71     7     6    1
    72    13    14    1
    73     5     6    1
    74    14    15    1
    75    15    16    1
