@<TRIPOS>MOLECULE
tmp/1kmhA00.pdb
 164 154 0 0 0
SMALL
GASTEIGER

@<TRIPOS>ATOM
      1  N         48.8150   33.7430   68.9530 N.3    26  ALA26      -0.1231
      2  CA        49.3980   34.2850   67.7500 C.3    26  ALA26       0.1694
      3  C         48.2600   34.4690   66.8450 C.2    26  ALA26       0.2592
      4  O         47.5870   33.4830   66.5340 O.2    26  ALA26      -0.2718
      5  CB        50.4070   33.2840   67.1230 C.3    26  ALA26       0.0304
      6  N         48.0370   35.7110   66.4410 N.am   27  GLY27      -0.1957
      7  CA        47.0060   36.0610   65.4860 C.3    27  GLY27       0.1869
      8  C         45.8670   36.7110   66.1330 C.2    27  GLY27       0.2309
      9  O         44.8950   36.9610   65.4820 O.2    27  GLY27      -0.2863
     10  N         47.2140   43.4570   65.3100 N.3    39  ILE39      -0.1231
     11  CA        47.3240   42.0140   65.4390 C.3    39  ILE39       0.1692
     12  C         48.6000   41.4880   66.1790 C.2    39  ILE39       0.2592
     13  O         49.6650   42.2390   66.2410 O.2    39  ILE39      -0.2718
     14  CB        47.3660   41.5510   64.0940 C.3    39  ILE39       0.0266
     15  CG1       46.1920   42.0870   63.3610 C.3    39  ILE39       0.0019
     16  CG2       47.2530   40.1090   64.0210 C.3    39  ILE39       0.0020
     17  CD1       46.2350   41.5990   61.8840 C.3    39  ILE39       0.0001
     18  N         48.5990   40.2600   66.7340 N.am   40  ALA40      -0.1966
     19  CA        49.8110   39.8960   67.4570 C.3    40  ALA40       0.1728
     20  C         50.6080   38.8830   66.7220 C.2    40  ALA40       0.2616
     21  O         50.0470   37.8850   66.3480 O.2    40  ALA40      -0.2715
     22  CB        49.4460   39.4180   68.7670 C.3    40  ALA40       0.0334
     23  N         51.9080   39.0800   66.5090 N.am   41  LEU41      -0.1977
     24  CA        52.6870   38.0650   65.7970 C.3    41  LEU41       0.1596
     25  C         53.8920   37.5910   66.3940 C.2    41  LEU41       0.2287
     26  O         54.2010   36.4580   66.2180 O.2    41  LEU41      -0.2864
     27  CB        53.0790   38.4850   64.4280 C.3    41  LEU41       0.0297
     28  CG        52.7510   39.8970   64.1540 C.3    41  LEU41       0.0022
     29  CD1       53.9160   40.4640   63.3060 C.3    41  LEU41       0.0001
     30  CD2       51.2970   40.0530   63.4820 C.3    41  LEU41       0.0001
     31  N         51.5710   44.3410   65.2670 N.3    51  VAL51      -0.1245
     32  CA        51.4960   45.2320   64.0730 C.3    51  VAL51       0.1561
     33  C         50.2780   46.0500   64.1060 C.2    51  VAL51       0.2260
     34  O         49.2880   45.5350   64.1550 O.2    51  VAL51      -0.2867
     35  CB        51.4650   44.4290   62.8550 C.3    51  VAL51       0.0252
     36  CG1       51.9090   45.2710   61.7350 C.3    51  VAL51       0.0019
     37  CG2       52.5400   43.3330   62.9900 C.3    51  VAL51       0.0019
     38  N         40.3560   36.1370   67.2490 N.3    71  ILE71      -0.1231
     39  CA        41.4260   35.9700   66.3010 C.3    71  ILE71       0.1692
     40  C         41.0670   36.6280   65.0680 C.2    71  ILE71       0.2591
     41  O         40.8910   35.9550   64.1470 O.2    71  ILE71      -0.2718
     42  CB        41.7370   34.5020   66.0960 C.3    71  ILE71       0.0266
     43  CG1       42.6640   34.2820   64.9720 C.3    71  ILE71       0.0019
     44  CG2       40.5280   33.7420   65.7120 C.3    71  ILE71       0.0020
     45  CD1       42.7890   32.7920   64.5860 C.3    71  ILE71       0.0001
     46  N         41.0150   37.9630   65.0390 N.am   72  ALA72      -0.1980
     47  CA        40.7090   38.7800   63.8180 C.3    72  ALA72       0.1597
     48  C         39.4530   38.3530   63.0120 C.2    72  ALA72       0.2287
     49  O         39.5050   37.8280   61.9020 O.2    72  ALA72      -0.2864
     50  CB        41.9480   38.8080   62.8790 C.3    72  ALA72       0.0319
     51  N         39.3420   36.1210   58.4710 N.3   106  ILE106     -0.1231
     52  CA        40.1220   36.7330   57.4220 C.3   106  ILE106      0.1692
     53  C         40.9630   35.6410   56.9500 C.2   106  ILE106      0.2591
     54  O         40.8290   35.3310   55.8150 O.2   106  ILE106     -0.2718
     55  CB        40.9860   37.8560   57.9030 C.3   106  ILE106      0.0266
     56  CG1       40.1890   39.1450   57.9820 C.3   106  ILE106      0.0019
     57  CG2       42.1040   38.0510   56.9420 C.3   106  ILE106      0.0020
     58  CD1       41.0090   40.2840   58.4630 C.3   106  ILE106      0.0001
     59  N         41.7910   35.0300   57.7680 N.am  107  GLU107     -0.1978
     60  CA        42.5950   33.9500   57.3160 C.3   107  GLU107      0.1637
     61  C         41.9370   32.5660   57.6600 C.2   107  GLU107      0.2288
     62  O         41.8060   32.2100   58.8390 O.2   107  GLU107     -0.2864
     63  CB        43.9520   34.0800   57.9960 C.3   107  GLU107      0.0848
     64  CG        45.1490   34.3340   57.1040 C.3   107  GLU107      0.2847
     65  CD        45.4860   35.7840   57.0860 C.2   107  GLU107      0.4040
     66  OE1       46.5650   36.1620   56.5600 O.co2 107  GLU107     -0.2418
     67  OE2       44.6600   36.5720   57.6030 O.co2 107  GLU107     -0.2418
     68  N         49.7690   47.8670   57.4370 N.3   210  THR210     -0.1218
     69  CA        49.2670   46.6790   58.0180 C.3   210  THR210      0.1862
     70  C         47.8310   46.3660   57.5890 C.2   210  THR210      0.2287
     71  O         47.0560   45.7500   58.3770 O.2   210  THR210     -0.2866
     72  CB        49.3220   46.9040   59.5290 C.3   210  THR210      0.1770
     73  OG1       50.5050   47.7090   59.8030 O.3   210  THR210     -0.2211
     74  CG2       49.2650   45.4170   60.3070 C.3   210  THR210      0.0375
     75  N         47.5780   44.2700   53.3000 N.3   213  TYR213     -0.1227
     76  CA        47.8240   42.8260   53.3670 C.3   213  TYR213      0.1736
     77  C         46.4780   42.2250   53.3290 C.2   213  TYR213      0.2595
     78  O         46.1320   41.5210   52.3810 O.2   213  TYR213     -0.2718
     79  CB        48.4100   42.4550   54.7060 C.3   213  TYR213      0.0548
     80  CG        49.3430   41.2740   54.7520 C.ar  213  TYR213     -0.0200
     81  CD1       50.6600   41.3890   54.3220 C.ar  213  TYR213     -0.0009
     82  CD2       48.9290   40.0610   55.2920 C.ar  213  TYR213     -0.0009
     83  CE1       51.5220   40.3190   54.3850 C.ar  213  TYR213      0.0417
     84  CE2       49.7860   38.9780   55.3530 C.ar  213  TYR213      0.0417
     85  CZ        51.0860   39.1180   54.9000 C.ar  213  TYR213      0.1957
     86  OH        51.9560   38.0550   54.9660 O.3   213  TYR213     -0.2866
     87  N         45.6910   42.5300   54.3560 N.am  214  LEU214     -0.1980
     88  CA        44.3520   41.9680   54.4320 C.3   214  LEU214      0.1596
     89  C         43.4340   42.4630   53.3510 C.2   214  LEU214      0.2287
     90  O         42.3680   41.9370   53.2390 O.2   214  LEU214     -0.2864
     91  CB        43.7350   42.2260   55.8120 C.3   214  LEU214      0.0297
     92  CG        44.7250   42.0120   56.9300 C.3   214  LEU214      0.0022
     93  CD1       44.0250   42.2300   58.2120 C.3   214  LEU214      0.0001
     94  CD2       45.2500   40.5930   56.9020 C.3   214  LEU214      0.0001
     95  N         53.9420   43.8530   52.5600 N.3   247  TYR247     -0.1241
     96  CA        54.4310   42.7180   53.3730 C.3   247  TYR247      0.1605
     97  C         55.8480   42.9880   53.7580 C.2   247  TYR247      0.2264
     98  O         56.2050   43.0210   54.9130 O.2   247  TYR247     -0.2867
     99  CB        54.3650   41.3520   52.6440 C.3   247  TYR247      0.0534
    100  CG        54.7680   40.1900   53.5070 C.ar  247  TYR247     -0.0201
    101  CD1       54.7450   40.2770   54.9210 C.ar  247  TYR247     -0.0009
    102  CD2       55.1760   39.0240   52.9490 C.ar  247  TYR247     -0.0009
    103  CE1       55.1030   39.2100   55.7240 C.ar  247  TYR247      0.0417
    104  CE2       55.5590   37.9630   53.7430 C.ar  247  TYR247      0.0417
    105  CZ        55.5050   38.0550   55.1360 C.ar  247  TYR247      0.1957
    106  OH        55.8630   37.0140   55.9610 O.3   247  TYR247     -0.2866
    107  N         56.3300   45.2380   56.6170 N.3   250  MET250     -0.1245
    108  CA        56.0770   44.8180   57.9960 C.3   250  MET250      0.1570
    109  C         57.1810   43.8810   58.5660 C.2   250  MET250      0.2261
    110  O         57.5310   43.8930   59.7340 O.2   250  MET250     -0.2867
    111  CB        54.7150   44.1220   58.0760 C.3   250  MET250      0.0387
    112  CG        53.5590   44.9940   57.6320 C.3   250  MET250      0.0595
    113  SD        51.9870   44.2320   57.8970 S.3   250  MET250     -0.1393
    114  CE        52.3140   42.6480   56.7030 C.3   250  MET250      0.0692
    115  N         59.3680   44.5300   61.8650 N.3   254  LEU254     -0.1245
    116  CA        59.2820   43.5530   62.9390 C.3   254  LEU254      0.1561
    117  C         60.7250   43.0120   63.1310 C.2   254  LEU254      0.2260
    118  O         61.0700   42.1700   63.9820 O.2   254  LEU254     -0.2867
    119  CB        58.3180   42.4500   62.5770 C.3   254  LEU254      0.0270
    120  CG        56.8750   42.8430   62.5510 C.3   254  LEU254      0.0019
    121  CD1       56.0660   41.7390   61.8350 C.3   254  LEU254      0.0001
    122  CD2       56.3430   43.0810   63.9400 C.3   254  LEU254      0.0001
    123  N         62.5110   41.2420   60.9010 N.3   256  ARG256     -0.1245
    124  CA        62.6330   39.8930   60.4260 C.3   256  ARG256      0.1563
    125  C         63.5290   39.7750   59.1650 C.2   256  ARG256      0.2260
    126  O         63.3700   40.5030   58.1590 O.2   256  ARG256     -0.2867
    127  CB        61.2320   39.3430   60.1270 C.3   256  ARG256      0.0307
    128  CG        60.3450   39.1020   61.3600 C.3   256  ARG256      0.0489
    129  CD        58.9960   38.5200   61.0100 C.3   256  ARG256      0.2205
    130  NE        58.1890   38.3970   62.2150 N.pl3 256  ARG256     -0.0865
    131  CZ        56.8920   38.0760   62.2220 C.cat 256  ARG256      0.5346
    132  NH1       56.2570   37.8370   61.0710 N.pl3 256  ARG256      0.1354
    133  NH2       56.2260   37.9960   63.3780 N.pl3 256  ARG256      0.1354
    134  N         58.2930   34.6260   53.4300 N.3   266  ASP266     -0.1239
    135  CA        56.9900   34.0520   53.4070 C.3   266  ASP266      0.1674
    136  C         56.1860   34.8750   52.4150 C.2   266  ASP266      0.2266
    137  O         54.9340   35.0800   52.6010 O.2   266  ASP266     -0.2867
    138  CB        56.3530   34.1470   54.7560 C.3   266  ASP266      0.1410
    139  CG        57.0410   33.2670   55.8030 C.2   266  ASP266      0.3668
    140  OD1       57.1320   32.0380   55.5880 O.co2 266  ASP266     -0.2456
    141  OD2       57.5090   33.7090   56.8940 O.co2 266  ASP266     -0.2456
    142  N         53.6250   32.7510   50.4320 N.3   269  TYR269     -0.1241
    143  CA        52.4430   32.3450   51.1650 C.3   269  TYR269      0.1605
    144  C         51.5210   33.5920   51.3490 C.2   269  TYR269      0.2264
    145  O         50.8600   33.8180   52.3690 O.2   269  TYR269     -0.2867
    146  CB        52.8620   31.6480   52.4600 C.3   269  TYR269      0.0534
    147  CG        53.7080   30.5640   52.0720 C.ar  269  TYR269     -0.0201
    148  CD1       54.9110   30.8130   51.4320 C.ar  269  TYR269     -0.0009
    149  CD2       53.2760   29.2600   52.1650 C.ar  269  TYR269     -0.0009
    150  CE1       55.7350   29.7480   50.9610 C.ar  269  TYR269      0.0417
    151  CE2       54.0820   28.1600   51.6920 C.ar  269  TYR269      0.0417
    152  CZ        55.2960   28.4150   51.0980 C.ar  269  TYR269      0.1957
    153  OH        56.0250   27.3330   50.6590 O.3   269  TYR269     -0.2866
    154  N         48.0180   31.5980   48.8890 N.3   273  ARG273     -0.1245
    155  CA        46.8710   31.4020   49.8400 C.3   273  ARG273      0.1563
    156  C         45.6350   32.1480   49.3750 C.2   273  ARG273      0.2260
    157  O         44.5430   31.6200   49.4840 O.2   273  ARG273     -0.2867
    158  CB        47.1760   31.8550   51.2560 C.3   273  ARG273      0.0307
    159  CG        46.1090   31.4900   52.3040 C.3   273  ARG273      0.0489
    160  CD        46.3930   32.1770   53.6610 C.3   273  ARG273      0.2204
    161  NE        45.4380   31.8070   54.6860 N.pl3 273  ARG273     -0.0894
    162  CZ        45.4630   32.2600   55.9290 C.cat 273  ARG273      0.4955
    163  NH1       46.3960   33.1140   56.3070 N.pl3 273  ARG273     -0.0811
    164  NH2       44.5270   31.8650   56.7870 N.pl3 273  ARG273      0.1317
@<TRIPOS>BOND
     1   154   155    1
     2   156   157    2
     3   156   155    1
     4   155   158    1
     5   142   143    1
     6   153   152    1
     7   150   152   ar
     8   150   148   ar
     9   152   151   ar
    10   143   144    1
    11   143   146    1
    12   158   159    1
    13   144   145    2
    14   148   147   ar
    15   151   149   ar
    16   147   149   ar
    17   147   146    1
    18   159   160    1
    19    78    77    2
    20   136   137    2
    21   136   135    1
    22    95    96    1
    23    99    96    1
    24    99   100    1
    25   102   100   ar
    26   102   104   ar
    27    90    89    2
    28    75    76    1
    29    77    76    1
    30    77    87   am
    31    89    88    1
    32    76    79    1
    33    96    97    1
    34   135   134    1
    35   135   138    1
    36   100   101   ar
    37   160   161    1
    38   104   105   ar
    39    97    98    2
    40    81    83   ar
    41    81    80   ar
    42    87    88    1
    43    83    85   ar
    44    88    91    1
    45   161   162    1
    46    79    80    1
    47    80    82   ar
    48   138   139    1
    49    85    86    1
    50    85    84   ar
    51   101   103   ar
    52   105   103   ar
    53   105   106    1
    54    82    84   ar
    55   140   139   ar
    56   139   141   ar
    57    91    92    1
    58    54    53    2
    59   162   163    1
    60   162   164    2
    61   163    64    1
    62    66    65   ar
    63   107   108    1
    64   114   113    1
    65    94    92    1
    66    92    93    1
    67    57    55    1
    68    53    52    1
    69    53    59   am
    70    65    64    1
    71    65    67   ar
    72    64    63    1
    73    60    61    1
    74    60    59    1
    75    60    63    1
    76    52    55    1
    77    52    51    1
    78    68    69    1
    79    70    69    1
    80    70    71    2
    81   112   113    1
    82   112   111    1
    83    61    62    2
    84    55    56    1
    85    56    58    1
    86   108   111    1
    87   108   109    1
    88    69    72    1
    89   126   125    2
    90   109   110    2
    91   125   124    1
    92    72    73    1
    93    72    74    1
    94   127   124    1
    95   127   128    1
    96   124   123    1
    97   129   128    1
    98   129   130    1
    99   132   131    1
   100    36    35    1
   101   121   120    1
   102   115   116    1
   103    17    15    1
   104    49    48    2
   105   130   131    2
   106   131   133    1
   107   120   119    1
   108   120   122    1
   109   119   116    1
   110    35    37    1
   111    35    32    1
   112    50    47    1
   113   116   117    1
   114    48    47    1
   115   117   118    2
   116    29    28    1
   117    15    14    1
   118    30    28    1
   119    47    46    1
   120    16    14    1
   121    32    33    1
   122    32    31    1
   123    14    11    1
   124    33    34    2
   125    41    40    2
   126    28    27    1
   127    27    24    1
   128    45    43    1
   129    43    42    1
   130    46    40   am
   131    40    39    1
   132    10    11    1
   133    11    12    1
   134     9     8    2
   135     7     8    1
   136     7     6    1
   137    44    42    1
   138    24    25    1
   139    24    23    1
   140    42    39    1
   141    12    13    2
   142    12    18   am
   143    26    25    2
   144    39    38    1
   145    21    20    2
   146     6     3   am
   147    23    20   am
   148     4     3    2
   149    20    19    1
   150    18    19    1
   151     3     2    1
   152     5     2    1
   153    19    22    1
   154     2     1    1
