@<TRIPOS>MOLECULE
tmp/1kmmD00.pdb
 237 226 0 0 0
SMALL
GASTEIGER

@<TRIPOS>ATOM
      1  N          7.4390  -21.8740   -7.1710 N.3    59  VAL59      -0.1245
      2  CA         7.3990  -20.5720   -7.8120 C.3    59  VAL59       0.1561
      3  C          6.1340  -19.8800   -7.3600 C.2    59  VAL59       0.2260
      4  O          6.1880  -18.8050   -6.7520 O.2    59  VAL59      -0.2867
      5  CB         7.3140  -20.6820   -9.3520 C.3    59  VAL59       0.0252
      6  CG1        7.5170  -19.3070   -9.9850 C.3    59  VAL59       0.0019
      7  CG2        8.3110  -21.6920   -9.8820 C.3    59  VAL59       0.0019
      8  N          9.0280  -15.9040  -14.8870 N.3    80  GLU80      -0.1231
      9  CA         9.4870  -16.6230  -16.0550 C.3    80  GLU80       0.1699
     10  C          8.6950  -16.0380  -17.2280 C.2    80  GLU80       0.2593
     11  O          7.7640  -15.2700  -17.0080 O.2    80  GLU80      -0.2718
     12  CB         9.2910  -18.1200  -15.8760 C.3    80  GLU80       0.0402
     13  CG         7.8630  -18.5830  -15.8530 C.3    80  GLU80       0.1161
     14  CD         7.3550  -18.8640  -17.2340 C.2    80  GLU80       0.3649
     15  OE1        8.1030  -19.5040  -18.0050 O.co2  80  GLU80      -0.2457
     16  OE2        6.2290  -18.4230  -17.5580 O.co2  80  GLU80      -0.2457
     17  N          9.0080  -16.4080  -18.4660 N.am   81  GLY81      -0.1942
     18  CA         8.3220  -15.7600  -19.5700 C.3    81  GLY81       0.2014
     19  C          7.5520  -16.5880  -20.5680 C.2    81  GLY81       0.2639
     20  O          6.8640  -16.0270  -21.4590 O.2    81  GLY81      -0.2714
     21  N          7.6020  -17.9070  -20.4150 N.am   82  THR82      -0.1950
     22  CA         6.8960  -18.7770  -21.3390 C.3    82  THR82       0.1897
     23  C          5.4090  -18.4820  -21.3420 C.2    82  THR82       0.2313
     24  O          4.7740  -18.3950  -22.4070 O.2    82  THR82      -0.2863
     25  CB         7.0240  -20.2100  -20.9430 C.3    82  THR82       0.1794
     26  OG1        8.3470  -20.4320  -20.4390 O.3    82  THR82      -0.2208
     27  CG2        6.7060  -21.1010  -22.1450 C.3    82  THR82       0.0378
     28  N         13.3640  -13.9940  -26.5470 N.3   104  TYR104     -0.1241
     29  CA        13.1780  -12.7730  -25.7910 C.3   104  TYR104      0.1605
     30  C         14.2350  -12.7020  -24.7260 C.2   104  TYR104      0.2264
     31  O         14.8300  -13.7180  -24.3270 O.2   104  TYR104     -0.2867
     32  CB        11.7860  -12.7180  -25.1220 C.3   104  TYR104      0.0534
     33  CG        11.4030  -13.9470  -24.2650 C.ar  104  TYR104     -0.0201
     34  CD1       12.0290  -14.2040  -23.0350 C.ar  104  TYR104     -0.0009
     35  CD2       10.4780  -14.8970  -24.7450 C.ar  104  TYR104     -0.0009
     36  CE1       11.7600  -15.3720  -22.3280 C.ar  104  TYR104      0.0417
     37  CE2       10.2070  -16.0720  -24.0390 C.ar  104  TYR104      0.0417
     38  CZ        10.8490  -16.3070  -22.8380 C.ar  104  TYR104      0.1957
     39  OH        10.6130  -17.4920  -22.1580 O.3   104  TYR104     -0.2866
     40  N         11.5980  -13.1060   -8.7790 N.3   110  ARG110     -0.1245
     41  CA        11.2830  -14.1770   -7.8400 C.3   110  ARG110      0.1563
     42  C         11.7300  -13.7840   -6.4240 C.2   110  ARG110      0.2260
     43  O         12.8280  -13.2570   -6.2010 O.2   110  ARG110     -0.2867
     44  CB        11.9550  -15.4800   -8.2610 C.3   110  ARG110      0.0307
     45  CG        11.3860  -16.0430   -9.5330 C.3   110  ARG110      0.0489
     46  CD        12.0340  -17.3630   -9.9010 C.3   110  ARG110      0.2205
     47  NE        11.6490  -17.7870  -11.2480 N.pl3 110  ARG110     -0.0865
     48  CZ        12.1920  -18.8150  -11.8870 C.cat 110  ARG110      0.5346
     49  NH1       13.1470  -19.5280  -11.2950 N.pl3 110  ARG110      0.1354
     50  NH2       11.7790  -19.1290  -13.1100 N.pl3 110  ARG110      0.1354
     51  N         13.2990  -14.7700   -3.5580 N.3   112  GLU112     -0.1245
     52  CA        14.1620  -15.8190   -2.9930 C.3   112  GLU112      0.1567
     53  C         15.3580  -15.2300   -2.2430 C.2   112  GLU112      0.2260
     54  O         15.7620  -14.0930   -2.5210 O.2   112  GLU112     -0.2867
     55  CB        14.7130  -16.7100   -4.1000 C.3   112  GLU112      0.0388
     56  CG        13.6800  -17.3830   -4.9660 C.3   112  GLU112      0.1160
     57  CD        14.3070  -18.0090   -6.1860 C.2   112  GLU112      0.3649
     58  OE1       15.4070  -17.5490   -6.5690 O.co2 112  GLU112     -0.2457
     59  OE2       13.7110  -18.9480   -6.7650 O.co2 112  GLU112     -0.2457
     60  N         24.1950  -17.1590   -6.9340 N.3   117  GLY117     -0.1210
     61  CA        23.4340  -17.4030   -8.1480 C.3   117  GLY117      0.1956
     62  C         21.9910  -16.9340   -8.1720 C.2   117  GLY117      0.2612
     63  O         21.4640  -16.6190   -9.2420 O.2   117  GLY117     -0.2717
     64  N         21.3430  -16.9080   -7.0050 N.am  118  ARG118     -0.1965
     65  CA        19.9380  -16.5000   -6.8980 C.3   118  ARG118      0.1729
     66  C         19.7290  -14.9970   -6.6460 C.2   118  ARG118      0.2616
     67  O         20.1870  -14.4590   -5.6390 O.2   118  ARG118     -0.2715
     68  CB        19.2190  -17.3330   -5.8140 C.3   118  ARG118      0.0348
     69  CG        19.1720  -18.8550   -6.0830 C.3   118  ARG118      0.0492
     70  CD        18.1890  -19.2360   -7.2120 C.3   118  ARG118      0.2205
     71  NE        18.6450  -20.3670   -8.0390 N.pl3 118  ARG118     -0.0865
     72  CZ        17.9070  -21.0000   -8.9630 C.cat 118  ARG118      0.5346
     73  NH1       16.6410  -20.6390   -9.1980 N.pl3 118  ARG118      0.1354
     74  NH2       18.4590  -21.9660   -9.7070 N.pl3 118  ARG118      0.1354
     75  N         19.0420  -14.3350   -7.5730 N.am  119  TYR119     -0.1974
     76  CA        18.7370  -12.9060   -7.4750 C.3   119  TYR119      0.1639
     77  C         17.2390  -12.7410   -7.4400 C.2   119  TYR119      0.2290
     78  O         16.5260  -13.6130   -7.9330 O.2   119  TYR119     -0.2864
     79  CB        19.2540  -12.1710   -8.7020 C.3   119  TYR119      0.0560
     80  CG        20.7260  -12.2590   -8.7980 C.ar  119  TYR119     -0.0198
     81  CD1       21.5230  -11.8410   -7.7340 C.ar  119  TYR119     -0.0009
     82  CD2       21.3390  -12.7990   -9.9230 C.ar  119  TYR119     -0.0009
     83  CE1       22.9000  -11.9600   -7.7830 C.ar  119  TYR119      0.0417
     84  CE2       22.7230  -12.9240   -9.9840 C.ar  119  TYR119      0.0417
     85  CZ        23.4940  -12.4980   -8.9120 C.ar  119  TYR119      0.1957
     86  OH        24.8600  -12.5940   -8.9630 O.3   119  TYR119     -0.2866
     87  N         16.3810  -10.9870  -11.9470 N.3   122  PHE122     -0.1241
     88  CA        17.3990  -11.6390  -12.7350 C.3   122  PHE122      0.1605
     89  C         16.9750  -11.4780  -14.1850 C.2   122  PHE122      0.2264
     90  O         15.9500  -10.8480  -14.4540 O.2   122  PHE122     -0.2867
     91  CB        17.6060  -13.0950  -12.2770 C.3   122  PHE122      0.0534
     92  CG        16.4200  -14.0150  -12.5060 C.ar  122  PHE122     -0.0203
     93  CD1       16.2440  -14.6730  -13.7310 C.ar  122  PHE122     -0.0042
     94  CD2       15.5200  -14.2860  -11.4820 C.ar  122  PHE122     -0.0042
     95  CE1       15.1860  -15.5920  -13.9290 C.ar  122  PHE122     -0.0003
     96  CE2       14.4640  -15.1980  -11.6720 C.ar  122  PHE122     -0.0003
     97  CZ        14.3000  -15.8510  -12.8960 C.ar  122  PHE122     -0.0000
     98  N         16.8060  -13.2040  -18.3180 N.3   124  GLN124     -0.1245
     99  CA        16.8420  -14.4130  -19.0800 C.3   124  GLN124      0.1566
    100  C         16.8460  -14.1160  -20.5500 C.2   124  GLN124      0.2260
    101  O         16.5130  -13.0050  -20.9910 O.2   124  GLN124     -0.2867
    102  CB        15.5970  -15.2850  -18.7810 C.3   124  GLN124      0.0367
    103  CG        15.6120  -16.1390  -17.4760 C.3   124  GLN124      0.0905
    104  CD        14.4320  -17.1360  -17.3670 C.2   124  GLN124      0.2608
    105  OE1       13.3780  -16.9770  -18.0120 O.2   124  GLN124     -0.2717
    106  NE2       14.6150  -18.1590  -16.5390 N.am  124  GLN124     -0.0878
    107  N         11.3870  -19.9240  -27.7660 N.3   128  GLU128     -0.1245
    108  CA        10.1700  -20.7050  -27.7720 C.3   128  GLU128      0.1567
    109  C          9.8030  -20.9380  -29.2160 C.2   128  GLU128      0.2260
    110  O          9.7740  -19.9890  -30.0250 O.2   128  GLU128     -0.2867
    111  CB         9.0030  -19.9460  -27.0990 C.3   128  GLU128      0.0388
    112  CG         9.2880  -19.2240  -25.7470 C.3   128  GLU128      0.1160
    113  CD         9.4180  -20.1500  -24.5330 C.2   128  GLU128      0.3649
    114  OE1        9.2470  -21.3830  -24.6740 O.co2 128  GLU128     -0.2457
    115  OE2        9.6970  -19.6410  -23.4240 O.co2 128  GLU128     -0.2457
    116  N         11.8190  -30.8810  -14.1130 N.3   197  ARG197     -0.1245
    117  CA        11.8790  -29.4310  -13.9900 C.3   197  ARG197      0.1563
    118  C         10.9700  -28.9460  -12.8800 C.2   197  ARG197      0.2260
    119  O          9.9990  -29.6070  -12.5360 O.2   197  ARG197     -0.2867
    120  CB        11.5020  -28.7760  -15.3180 C.3   197  ARG197      0.0307
    121  CG        12.3450  -29.2510  -16.5230 C.3   197  ARG197      0.0489
    122  CD        13.2380  -28.1530  -17.1350 C.3   197  ARG197      0.2205
    123  NE        13.7730  -27.2810  -16.1000 N.pl3 197  ARG197     -0.0865
    124  CZ        13.3550  -26.0440  -15.8840 C.cat 197  ARG197      0.5346
    125  NH1       12.4620  -25.5200  -16.6820 N.pl3 197  ARG197      0.1354
    126  NH2       13.8600  -25.3110  -14.9090 N.pl3 197  ARG197      0.1354
    127  N          8.8170  -26.6970  -12.9950 N.3   199  LEU199     -0.1245
    128  CA         7.5660  -26.1460  -13.4960 C.3   199  LEU199      0.1561
    129  C          6.6950  -27.3240  -13.9380 C.2   199  LEU199      0.2260
    130  O          7.2070  -28.3370  -14.4160 O.2   199  LEU199     -0.2867
    131  CB         7.8080  -25.1630  -14.6500 C.3   199  LEU199      0.0270
    132  CG         8.8360  -24.0200  -14.5400 C.3   199  LEU199      0.0019
    133  CD1        8.3120  -22.8080  -15.2640 C.3   199  LEU199      0.0001
    134  CD2        9.1080  -23.6390  -13.1160 C.3   199  LEU199      0.0001
    135  N          4.4050  -27.5990  -16.5090 N.3   201  TYR201     -0.1227
    136  CA         3.8540  -27.6930  -17.8630 C.3   201  TYR201      0.1736
    137  C          4.6480  -28.5630  -18.8200 C.2   201  TYR201      0.2595
    138  O          4.2350  -28.7710  -19.9610 O.2   201  TYR201     -0.2718
    139  CB         3.5920  -26.3150  -18.4880 C.3   201  TYR201      0.0548
    140  CG         4.7550  -25.3420  -18.4640 C.ar  201  TYR201     -0.0200
    141  CD1        6.0230  -25.6970  -18.9520 C.ar  201  TYR201     -0.0009
    142  CD2        4.5820  -24.0480  -17.9650 C.ar  201  TYR201     -0.0009
    143  CE1        7.0800  -24.7790  -18.9420 C.ar  201  TYR201      0.0417
    144  CE2        5.6260  -23.1320  -17.9490 C.ar  201  TYR201      0.0417
    145  CZ         6.8740  -23.4920  -18.4410 C.ar  201  TYR201      0.1957
    146  OH         7.8910  -22.5450  -18.4340 O.3   201  TYR201     -0.2866
    147  N          5.7690  -29.0960  -18.3480 N.am  202  TYR202     -0.1976
    148  CA         6.6220  -29.9270  -19.1920 C.3   202  TYR202      0.1639
    149  C          6.0570  -31.2450  -19.6500 C.2   202  TYR202      0.2290
    150  O          5.4950  -32.0130  -18.8750 O.2   202  TYR202     -0.2864
    151  CB         8.0000  -30.1080  -18.5790 C.3   202  TYR202      0.0560
    152  CG         8.7470  -28.8120  -18.5530 C.ar  202  TYR202     -0.0198
    153  CD1        8.9580  -28.0880  -19.7250 C.ar  202  TYR202     -0.0009
    154  CD2        9.2390  -28.3020  -17.3660 C.ar  202  TYR202     -0.0009
    155  CE1        9.6500  -26.8850  -19.7080 C.ar  202  TYR202      0.0417
    156  CE2        9.9310  -27.1020  -17.3350 C.ar  202  TYR202      0.0417
    157  CZ        10.1390  -26.4020  -18.5070 C.ar  202  TYR202      0.1957
    158  OH        10.8770  -25.2510  -18.4780 O.3   202  TYR202     -0.2866
    159  N         22.9700  -24.9230  -12.6140 N.3   219  THR219     -0.1203
    160  CA        22.4110  -24.8170  -13.9540 C.3   219  THR219      0.1994
    161  C         22.5820  -23.4500  -14.5980 C.2   219  THR219      0.2617
    162  O         22.5520  -22.4250  -13.9210 O.2   219  THR219     -0.2717
    163  CB        20.9290  -25.2610  -13.9680 C.3   219  THR219      0.1784
    164  OG1       20.3440  -24.9750  -15.2440 O.3   219  THR219     -0.2211
    165  CG2       20.1510  -24.5760  -12.8670 C.3   219  THR219      0.0376
    166  N         22.8290  -23.4550  -15.9010 N.am  220  VAL220     -0.1979
    167  CA        23.0250  -22.2240  -16.6710 C.3   220  VAL220      0.1595
    168  C         21.8520  -22.0510  -17.6290 C.2   220  VAL220      0.2287
    169  O         21.3610  -20.9370  -17.8520 O.2   220  VAL220     -0.2864
    170  CB        24.3460  -22.2980  -17.5190 C.3   220  VAL220      0.0276
    171  CG1       24.4560  -21.1180  -18.4810 C.3   220  VAL220      0.0022
    172  CG2       25.5530  -22.3400  -16.6070 C.3   220  VAL220      0.0022
    173  N         18.1400  -24.1290  -18.9270 N.3   222  ALA222     -0.1231
    174  CA        17.1450  -25.1780  -18.7020 C.3   222  ALA222      0.1694
    175  C         15.9480  -24.9700  -19.6210 C.2   222  ALA222      0.2592
    176  O         15.6270  -23.8330  -19.9820 O.2   222  ALA222     -0.2718
    177  CB        16.7040  -25.1560  -17.2670 C.3   222  ALA222      0.0304
    178  N         15.3200  -26.0630  -20.0360 N.am  223  GLY223     -0.1957
    179  CA        14.1750  -25.9710  -20.9200 C.3   223  GLY223      0.1869
    180  C         13.4570  -27.3070  -21.0160 C.2   223  GLY223      0.2309
    181  O         13.7070  -28.2230  -20.2160 O.2   223  GLY223     -0.2863
    182  N          6.4730  -28.6510  -23.9620 N.3   226  TYR226     -0.1241
    183  CA         5.2670  -28.2760  -23.2300 C.3   226  TYR226      0.1605
    184  C          4.1290  -28.1740  -24.2440 C.2   226  TYR226      0.2264
    185  O          3.5050  -27.1250  -24.4160 O.2   226  TYR226     -0.2867
    186  CB         5.4740  -26.9630  -22.4120 C.3   226  TYR226      0.0534
    187  CG         5.9060  -25.7290  -23.1930 C.ar  226  TYR226     -0.0201
    188  CD1        7.2450  -25.5340  -23.5720 C.ar  226  TYR226     -0.0009
    189  CD2        4.9670  -24.7760  -23.6000 C.ar  226  TYR226     -0.0009
    190  CE1        7.6280  -24.4300  -24.3530 C.ar  226  TYR226      0.0417
    191  CE2        5.3400  -23.6740  -24.3820 C.ar  226  TYR226      0.0417
    192  CZ         6.6680  -23.5050  -24.7580 C.ar  226  TYR226      0.1957
    193  OH         7.0070  -22.4330  -25.5680 O.3   226  TYR226     -0.2866
    194  N         11.0370  -25.0460  -25.7680 N.3   242  GLY242     -0.1210
    195  CA        11.7540  -23.8130  -25.5470 C.3   242  GLY242      0.1956
    196  C         12.7270  -23.9860  -24.4240 C.2   242  GLY242      0.2612
    197  O         12.8850  -25.0890  -23.8930 O.2   242  GLY242     -0.2717
    198  N         13.3920  -22.9010  -24.0650 N.am  243  PHE243     -0.1962
    199  CA        14.3640  -22.9280  -22.9800 C.3   243  PHE243      0.1771
    200  C         14.6570  -21.4850  -22.6600 C.2   243  PHE243      0.2619
    201  O         14.3500  -20.5940  -23.4600 O.2   243  PHE243     -0.2715
    202  CB        15.6700  -23.6110  -23.4090 C.3   243  PHE243      0.0574
    203  CG        16.4610  -22.8270  -24.4390 C.ar  243  PHE243     -0.0200
    204  CD1       17.3500  -21.8380  -24.0470 C.ar  243  PHE243     -0.0042
    205  CD2       16.2820  -23.0580  -25.7930 C.ar  243  PHE243     -0.0042
    206  CE1       18.0420  -21.0860  -24.9900 C.ar  243  PHE243     -0.0003
    207  CE2       16.9710  -22.3110  -26.7360 C.ar  243  PHE243     -0.0003
    208  CZ        17.8500  -21.3230  -26.3320 C.ar  243  PHE243     -0.0000
    209  N         15.3010  -21.2670  -21.5250 N.am  244  ALA244     -0.1977
    210  CA        15.6580  -19.9380  -21.0800 C.3   244  ALA244      0.1597
    211  C         16.9580  -20.0750  -20.3040 C.2   244  ALA244      0.2287
    212  O         17.1760  -21.0770  -19.6200 O.2   244  ALA244     -0.2864
    213  CB        14.5710  -19.3810  -20.2020 C.3   244  ALA244      0.0319
    214  N         19.9240  -18.0980  -17.7140 N.3   246  GLY246     -0.1225
    215  CA        20.1530  -17.0300  -16.7550 C.3   246  GLY246      0.1811
    216  C         21.4030  -16.2490  -17.0820 C.2   246  GLY246      0.2280
    217  O         22.5150  -16.6210  -16.6790 O.2   246  GLY246     -0.2866
    218  N         22.9540  -13.8380  -15.8670 N.3   248  GLU248     -0.1231
    219  CA        23.9400  -13.5280  -14.8080 C.3   248  GLU248      0.1699
    220  C         24.9630  -14.6460  -14.6400 C.2   248  GLU248      0.2592
    221  O         26.1600  -14.4070  -14.4480 O.2   248  GLU248     -0.2718
    222  CB        23.2480  -13.2750  -13.4620 C.3   248  GLU248      0.0402
    223  CG        22.6270  -11.8960  -13.3040 C.3   248  GLU248      0.1161
    224  CD        21.1830  -11.7980  -13.7800 C.2   248  GLU248      0.3649
    225  OE1       20.6380  -12.7710  -14.3530 O.co2 248  GLU248     -0.2457
    226  OE2       20.5880  -10.7170  -13.5810 O.co2 248  GLU248     -0.2457
    227  N         24.4410  -15.8660  -14.6720 N.am  249  ARG249     -0.1980
    228  CA        25.2170  -17.0830  -14.5470 C.3   249  ARG249      0.1597
    229  C         26.2320  -17.1420  -15.6790 C.2   249  ARG249      0.2287
    230  O         27.4190  -17.3210  -15.4510 O.2   249  ARG249     -0.2864
    231  CB        24.2790  -18.2770  -14.6600 C.3   249  ARG249      0.0334
    232  CG        23.7350  -18.7990  -13.3490 C.3   249  ARG249      0.0492
    233  CD        22.7610  -17.8960  -12.6110 C.3   249  ARG249      0.2205
    234  NE        22.2350  -18.5270  -11.3840 N.pl3 249  ARG249     -0.0865
    235  CZ        21.3850  -19.5620  -11.3510 C.cat 249  ARG249      0.5346
    236  NH1       20.9620  -20.1330  -12.4770 N.pl3 249  ARG249      0.1354
    237  NH2       20.9690  -20.0460  -10.1830 N.pl3 249  ARG249      0.1354
@<TRIPOS>BOND
     1   110   109    2
     2   109   108    1
     3   108   107    1
     4   108   111    1
     5   111   112    1
     6   207   208   ar
     7   207   205   ar
     8    28    29    1
     9   208   206   ar
    10   205   203   ar
    11    29    32    1
    12    29    30    1
    13   194   195    1
    14   112   113    1
    15   193   192    1
    16   195   196    1
    17    32    33    1
    18   206   204   ar
    19   192   191   ar
    20   192   190   ar
    21    35    33   ar
    22    35    37   ar
    23    30    31    2
    24   114   113   ar
    25   113   115   ar
    26   203   204   ar
    27   203   202    1
    28   196   198   am
    29   196   197    2
    30   185   184    2
    31   191   189   ar
    32   190   188   ar
    33    33    34   ar
    34   184   183    1
    35   198   199    1
    36    37    38   ar
    37   182   183    1
    38   189   187   ar
    39   188   187   ar
    40   201   200    2
    41   202   199    1
    42   183   186    1
    43   187   186    1
    44    34    36   ar
    45   199   200    1
    46    38    36   ar
    47    38    39    1
    48   200   209   am
    49    24    23    2
    50    27    25    1
    51   209   210    1
    52    20    19    2
    53    23    22    1
    54    22    25    1
    55    22    21    1
    56   210   211    1
    57   210   213    1
    58   180   179    1
    59   180   181    2
    60   101   100    2
    61    25    26    1
    62   179   178    1
    63    19    21   am
    64    19    18    1
    65   100    99    1
    66   211   212    2
    67   178   175   am
    68   176   175    2
    69   138   137    2
    70   153   155   ar
    71   153   152   ar
    72   155   157   ar
    73   149   148    1
    74   149   150    2
    75   175   174    1
    76    18    17    1
    77   148   151    1
    78   148   147    1
    79    99   102    1
    80    99    98    1
    81   141   143   ar
    82   141   140   ar
    83   143   145   ar
    84   173   174    1
    85   137   147   am
    86   137   136    1
    87   102   103    1
    88   174   177    1
    89   151   152    1
    90   152   154   ar
    91   157   158    1
    92   157   156   ar
    93   139   140    1
    94   139   136    1
    95   171   170    1
    96    17    10   am
    97   140   142   ar
    98   145   146    1
    99   145   144   ar
   100   105   104    2
   101    15    14   ar
   102   142   144   ar
   103   136   135    1
   104   169   168    2
   105   214   215    1
   106   168   167    1
   107    16    14   ar
   108   170   167    1
   109   170   172    1
   110   103   104    1
   111   104   106   am
   112   154   156   ar
   113    14    13    1
   114    10    11    2
   115    10     9    1
   116   122   121    1
   117   122   123    1
   118   216   215    1
   119   216   217    2
   120   125   124    1
   121   167   166    1
   122   121   120    1
   123   123   124    2
   124     9    12    1
   125     9     8    1
   126   166   161   am
   127   124   126    1
   128    12    13    1
   129   218   219    1
   130   229   230    2
   131   229   228    1
   132   120   117    1
   133   133   132    1
   134   164   163    1
   135   219   220    1
   136   219   222    1
   137   227   220   am
   138   227   228    1
   139   231   228    1
   140   231   232    1
   141   131   132    1
   142   131   128    1
   143   220   221    2
   144   161   160    1
   145   161   162    2
   146   132   134    1
   147    90    89    2
   148   130   129    2
   149   225   224   ar
   150    89    88    1
   151   116   117    1
   152   117   118    1
   153   163   160    1
   154   163   165    1
   155   160   159    1
   156   129   128    1
   157    95    93   ar
   158    95    97   ar
   159   224   226   ar
   160   224   223    1
   161    93    92   ar
   162   128   127    1
   163   222   223    1
   164   232   233    1
   165    50    48    1
   166    97    96   ar
   167   118   119    2
   168    88    91    1
   169    88    87    1
   170   233   234    1
   171    92    91    1
   172    92    94   ar
   173   236   235    1
   174    48    49    1
   175    48    47    2
   176    96    94   ar
   177   234   235    2
   178   235   237    1
   179    47    46    1
   180     6     5    1
   181    84    82   ar
   182    84    85   ar
   183    82    80   ar
   184    46    45    1
   185     7     5    1
   186    74    72    1
   187    45    44    1
   188     5     2    1
   189    63    62    2
   190    73    72    1
   191    72    71    2
   192    86    85    1
   193    85    83   ar
   194    80    79    1
   195    80    81   ar
   196    40    41    1
   197    79    76    1
   198    44    41    1
   199    62    61    1
   200    62    64   am
   201    61    60    1
   202    71    70    1
   203    78    77    2
   204    41    42    1
   205     2     3    1
   206     2     1    1
   207    83    81   ar
   208    75    76    1
   209    75    66   am
   210    76    77    1
   211     3     4    2
   212    70    69    1
   213    64    65    1
   214    65    66    1
   215    65    68    1
   216    59    57   ar
   217    66    67    2
   218    58    57   ar
   219    42    43    2
   220    57    56    1
   221    69    68    1
   222    56    55    1
   223    55    52    1
   224    51    52    1
   225    52    53    1
   226    54    53    2
