@<TRIPOS>MOLECULE
tmp/1kmmA00.pdb
 238 229 0 0 0
SMALL
GASTEIGER

@<TRIPOS>ATOM
      1  N        -10.0700   15.8640   13.6600 N.3    80  GLU80      -0.1231
      2  CA       -11.1440   16.5310   14.4060 C.3    80  GLU80       0.1699
      3  C        -12.5070   15.9280   13.9910 C.2    80  GLU80       0.2593
      4  O        -12.5580   15.0890   13.0910 O.2    80  GLU80      -0.2718
      5  CB       -11.1350   18.0180   14.1420 C.3    80  GLU80       0.0402
      6  CG       -11.4090   18.3170   12.7310 C.3    80  GLU80       0.1161
      7  CD       -12.6870   19.0370   12.5480 C.2    80  GLU80       0.3649
      8  OE1      -13.0520   19.8340   13.4320 O.co2  80  GLU80      -0.2457
      9  OE2      -13.3120   18.8260   11.4950 O.co2  80  GLU80      -0.2457
     10  N        -13.6100   16.4190   14.5530 N.am   81  GLY81      -0.1942
     11  CA       -14.8790   15.7900   14.2430 C.3    81  GLY81       0.2014
     12  C        -15.9470   16.5670   13.5280 C.2    81  GLY81       0.2639
     13  O        -16.8680   15.9710   12.9340 O.2    81  GLY81      -0.2714
     14  N        -15.8160   17.8820   13.5330 N.am   82  THR82      -0.1950
     15  CA       -16.8010   18.7370   12.9070 C.3    82  THR82       0.1897
     16  C        -17.0510   18.5110   11.4500 C.2    82  THR82       0.2313
     17  O        -18.1690   18.6470   10.9640 O.2    82  THR82      -0.2863
     18  CB       -16.4120   20.1400   13.0730 C.3    82  THR82       0.1794
     19  OG1      -16.1770   20.3580   14.4670 O.3    82  THR82      -0.2208
     20  CG2      -17.4960   21.0600   12.5400 C.3    82  THR82       0.0378
     21  N        -20.8530   14.0180   20.3010 N.3   104  TYR104     -0.1241
     22  CA       -20.1570   12.7950   19.9110 C.3   104  TYR104      0.1605
     23  C        -18.9150   12.6800   20.7480 C.2   104  TYR104      0.2264
     24  O        -18.4190   13.6780   21.2820 O.2   104  TYR104     -0.2867
     25  CB       -19.7810   12.8140   18.4250 C.3   104  TYR104      0.0534
     26  CG       -19.0130   14.0460   17.9530 C.ar  104  TYR104     -0.0201
     27  CD1      -17.7140   14.3030   18.4120 C.ar  104  TYR104     -0.0009
     28  CD2      -19.5970   14.9590   17.0710 C.ar  104  TYR104     -0.0009
     29  CE1      -17.0230   15.4310   18.0290 C.ar  104  TYR104      0.0417
     30  CE2      -18.9150   16.1040   16.6680 C.ar  104  TYR104      0.0417
     31  CZ       -17.6200   16.3360   17.1590 C.ar  104  TYR104      0.1957
     32  OH       -16.9260   17.4820   16.8160 O.3   104  TYR104     -0.2866
     33  N         -3.7350   12.9250   15.2170 N.3   110  ARG110     -0.1245
     34  CA        -2.8350   13.9880   14.7800 C.3   110  ARG110      0.1563
     35  C         -1.3770   13.6100   14.9530 C.2   110  ARG110      0.2260
     36  O         -0.9760   13.1020   15.9950 O.2   110  ARG110     -0.2867
     37  CB        -3.1130   15.2850   15.5200 C.3   110  ARG110      0.0307
     38  CG        -4.4120   15.8710   15.1280 C.3   110  ARG110      0.0489
     39  CD        -4.5200   17.2360   15.6350 C.3   110  ARG110      0.2205
     40  NE        -5.8960   17.6640   15.5300 N.pl3 110  ARG110     -0.0865
     41  CZ        -6.3330   18.8470   15.9430 C.cat 110  ARG110      0.5346
     42  NH1       -5.4810   19.7140   16.4770 N.pl3 110  ARG110      0.1354
     43  NH2       -7.6200   19.1590   15.8230 N.pl3 110  ARG110      0.1354
     44  N          1.6840   14.8150   15.8320 N.3   112  GLU112     -0.1245
     45  CA         2.3660   15.9120   16.5080 C.3   112  GLU112      0.1567
     46  C          3.4130   15.3090   17.4130 C.2   112  GLU112      0.2260
     47  O          3.4240   14.1050   17.6540 O.2   112  GLU112     -0.2867
     48  CB         1.3830   16.7190   17.3650 C.3   112  GLU112      0.0388
     49  CG         0.3880   17.5650   16.5860 C.3   112  GLU112      0.1160
     50  CD        -0.7260   18.1480   17.4620 C.2   112  GLU112      0.3649
     51  OE1       -1.4480   17.3460   18.0870 O.co2 112  GLU112     -0.2457
     52  OE2       -0.9050   19.3900   17.5170 O.co2 112  GLU112     -0.2457
     53  N          0.4750   17.3080   27.2110 N.3   117  GLY117     -0.1210
     54  CA        -0.9180   17.2670   26.8010 C.3   117  GLY117      0.1956
     55  C         -1.2090   16.9610   25.3480 C.2   117  GLY117      0.2612
     56  O         -2.3520   17.1110   24.9350 O.2   117  GLY117     -0.2717
     57  N         -0.1880   16.6040   24.5630 N.am  118  ARG118     -0.1965
     58  CA        -0.3600   16.2840   23.1420 C.3   118  ARG118      0.1729
     59  C         -0.0650   14.8320   22.8990 C.2   118  ARG118      0.2616
     60  O          0.9760   14.3390   23.3250 O.2   118  ARG118     -0.2715
     61  CB         0.6010   17.0650   22.2620 C.3   118  ARG118      0.0348
     62  CG         0.4720   18.5490   22.3390 C.3   118  ARG118      0.0492
     63  CD         0.6870   19.1610   20.9640 C.3   118  ARG118      0.2205
     64  NE         1.9420   18.7330   20.3340 N.pl3 118  ARG118     -0.0865
     65  CZ         3.0580   19.4600   20.3110 C.cat 118  ARG118      0.5346
     66  NH1        3.0990   20.6440   20.9120 N.pl3 118  ARG118      0.1354
     67  NH2        4.1380   18.9980   19.7040 N.pl3 118  ARG118      0.1354
     68  N         -0.9590   14.1460   22.2080 N.am  119  TYR119     -0.1974
     69  CA        -0.7340   12.7440   21.9150 C.3   119  TYR119      0.1639
     70  C         -1.0990   12.6430   20.4600 C.2   119  TYR119      0.2290
     71  O         -1.5920   13.6180   19.8880 O.2   119  TYR119     -0.2864
     72  CB        -1.6180   11.8340   22.7830 C.3   119  TYR119      0.0560
     73  CG        -1.5590   12.1280   24.2800 C.ar  119  TYR119     -0.0198
     74  CD1       -0.5390   11.5980   25.0720 C.ar  119  TYR119     -0.0009
     75  CD2       -2.5170   12.9570   24.9010 C.ar  119  TYR119     -0.0009
     76  CE1       -0.4540   11.8830   26.4370 C.ar  119  TYR119      0.0417
     77  CE2       -2.4440   13.2520   26.2700 C.ar  119  TYR119      0.0417
     78  CZ        -1.4010   12.7090   27.0290 C.ar  119  TYR119      0.1957
     79  OH        -1.2670   13.0200   28.3620 O.3   119  TYR119     -0.2866
     80  N         -5.7580   11.0050   20.4150 N.3   122  PHE122     -0.1241
     81  CA        -6.3580   11.6770   21.5350 C.3   122  PHE122      0.1605
     82  C         -7.8720   11.4970   21.3980 C.2   122  PHE122      0.2264
     83  O         -8.3330   10.9270   20.4010 O.2   122  PHE122     -0.2867
     84  CB        -5.9140   13.1490   21.5810 C.3   122  PHE122      0.0534
     85  CG        -6.3440   13.9710   20.3970 C.ar  122  PHE122     -0.0203
     86  CD1       -5.7430   13.8090   19.1560 C.ar  122  PHE122     -0.0042
     87  CD2       -7.3330   14.9560   20.5380 C.ar  122  PHE122     -0.0042
     88  CE1       -6.1190   14.6180   18.0640 C.ar  122  PHE122     -0.0003
     89  CE2       -7.7270   15.7800   19.4490 C.ar  122  PHE122     -0.0003
     90  CZ        -7.1170   15.6060   18.2150 C.ar  122  PHE122     -0.0000
     91  N        -11.8660   13.2840   21.9070 N.3   124  GLN124     -0.1245
     92  CA       -12.6500   14.5000   22.0520 C.3   124  GLN124      0.1566
     93  C        -14.1010   14.1630   22.3720 C.2   124  GLN124      0.2260
     94  O        -14.5790   13.0710   22.0270 O.2   124  GLN124     -0.2867
     95  CB       -12.6500   15.3040   20.7420 C.3   124  GLN124      0.0367
     96  CG       -11.3550   16.0470   20.3750 C.3   124  GLN124      0.0905
     97  CD       -11.5730   17.1270   19.2960 C.2   124  GLN124      0.2608
     98  OE1      -12.5220   17.0520   18.5010 O.2   124  GLN124     -0.2717
     99  NE2      -10.7190   18.1420   19.2910 N.am  124  GLN124     -0.0878
    100  N        -22.2580   19.9660   18.4900 N.3   128  GLU128     -0.1245
    101  CA       -22.5520   20.7330   17.2980 C.3   128  GLU128      0.1567
    102  C        -24.0680   20.9480   17.2610 C.2   128  GLU128      0.2260
    103  O        -24.8280   19.9930   17.4530 O.2   128  GLU128     -0.2867
    104  CB       -22.1070   19.9500   16.0480 C.3   128  GLU128      0.0388
    105  CG       -20.6780   19.3130   16.1030 C.3   128  GLU128      0.1160
    106  CD       -19.5010   20.3200   15.9790 C.2   128  GLU128      0.3649
    107  OE1      -19.7370   21.5540   15.8500 O.co2 128  GLU128     -0.2457
    108  OE2      -18.3270   19.8650   16.0170 O.co2 128  GLU128     -0.2457
    109  N         -9.0020   30.8010   15.9980 N.3   221  ARG221     -0.1231
    110  CA        -8.7940   29.3720   16.1810 C.3   221  ARG221      0.1694
    111  C         -7.8240   28.8650   15.1120 C.2   221  ARG221      0.2593
    112  O         -7.5690   29.5550   14.1410 O.2   221  ARG221     -0.2718
    113  CB       -10.1220   28.6210   16.0990 C.3   221  ARG221      0.0321
    114  CG       -11.2320   29.0490   17.0750 C.3   221  ARG221      0.0489
    115  CD       -10.9260   28.8060   18.5290 C.3   221  ARG221      0.2205
    116  NE       -10.1780   27.5770   18.7790 N.pl3 221  ARG221     -0.0865
    117  CZ       -10.5880   26.3480   18.4670 C.cat 221  ARG221      0.5346
    118  NH1      -11.7440   26.1590   17.8680 N.pl3 221  ARG221      0.1354
    119  NH2       -9.8220   25.3020   18.7470 N.pl3 221  ARG221      0.1354
    120  N         -7.3030   27.6570   15.2790 N.am  222  GLY222     -0.1942
    121  CA        -6.3710   27.1280   14.2990 C.3   222  GLY222      0.2014
    122  C         -7.0050   26.4960   13.0740 C.2   222  GLY222      0.2638
    123  O         -6.3090   25.9010   12.2500 O.2   222  GLY222     -0.2714
    124  N         -8.3300   26.5600   12.9820 N.am  223  LEU223     -0.1977
    125  CA        -9.0700   25.9830   11.8570 C.3   223  LEU223      0.1596
    126  C         -9.6470   27.1790   11.0920 C.2   223  LEU223      0.2287
    127  O         -9.8900   28.2300   11.6810 O.2   223  LEU223     -0.2864
    128  CB       -10.2020   25.0530   12.3550 C.3   223  LEU223      0.0297
    129  CG       -10.0900   23.9030   13.3840 C.3   223  LEU223      0.0022
    130  CD1       -9.1850   22.8420   12.9030 C.3   223  LEU223      0.0001
    131  CD2       -9.6390   24.3960   14.7430 C.3   223  LEU223      0.0001
    132  N        -12.7490   27.3690    9.3380 N.3   225  TYR225     -0.1227
    133  CA       -14.1960   27.4290    9.0950 C.3   225  TYR225      0.1736
    134  C        -15.0730   28.3280    9.9720 C.2   225  TYR225      0.2595
    135  O        -16.2530   28.5790    9.6480 O.2   225  TYR225     -0.2718
    136  CB       -14.7890   26.0380    9.0820 C.3   225  TYR225      0.0548
    137  CG       -14.4230   25.1650   10.2510 C.ar  225  TYR225     -0.0200
    138  CD1      -14.7780   25.5010   11.5610 C.ar  225  TYR225     -0.0009
    139  CD2      -13.7830   23.9460   10.0310 C.ar  225  TYR225     -0.0009
    140  CE1      -14.5070   24.6300   12.6140 C.ar  225  TYR225      0.0417
    141  CE2      -13.5170   23.0710   11.0690 C.ar  225  TYR225      0.0417
    142  CZ       -13.8760   23.4060   12.3580 C.ar  225  TYR225      0.1957
    143  OH       -13.5980   22.4810   13.3600 O.3   225  TYR225     -0.2866
    144  N        -14.4740   28.8290   11.0470 N.am  226  TYR226     -0.1976
    145  CA       -15.1300   29.6760   12.0230 C.3   226  TYR226      0.1639
    146  C        -15.5610   31.0480   11.5470 C.2   226  TYR226      0.2290
    147  O        -14.9110   31.6060   10.6740 O.2   226  TYR226     -0.2864
    148  CB       -14.1850   29.8550   13.1900 C.3   226  TYR226      0.0560
    149  CG       -13.8760   28.5670   13.9010 C.ar  226  TYR226     -0.0198
    150  CD1      -14.8600   27.9090   14.6680 C.ar  226  TYR226     -0.0009
    151  CD2      -12.6110   28.0180   13.8450 C.ar  226  TYR226     -0.0009
    152  CE1      -14.5700   26.7520   15.3650 C.ar  226  TYR226      0.0417
    153  CE2      -12.3180   26.8630   14.5270 C.ar  226  TYR226      0.0417
    154  CZ       -13.2940   26.2380   15.2880 C.ar  226  TYR226      0.1957
    155  OH       -12.9510   25.1120   15.9910 O.3   226  TYR226     -0.2866
    156  N         -5.2170   25.0390   26.6520 N.3   243  THR243     -0.1203
    157  CA        -6.6400   24.9920   26.3900 C.3   243  THR243      0.1994
    158  C         -7.3030   23.6110   26.5030 C.2   243  THR243      0.2617
    159  O         -6.8400   22.6500   25.9070 O.2   243  THR243     -0.2717
    160  CB        -6.9270   25.6980   25.0590 C.3   243  THR243      0.1784
    161  OG1       -8.1060   25.1670   24.4490 O.3   243  THR243     -0.2211
    162  CG2       -5.7440   25.5660   24.1260 C.3   243  THR243      0.0376
    163  N         -8.3480   23.5170   27.3300 N.am  244  VAL244     -0.1979
    164  CA        -9.0890   22.2660   27.5570 C.3   244  VAL244      0.1595
    165  C        -10.3320   22.0890   26.6810 C.2   244  VAL244      0.2287
    166  O        -10.7530   20.9640   26.4040 O.2   244  VAL244     -0.2864
    167  CB        -9.5500   22.1570   29.0190 C.3   244  VAL244      0.0276
    168  CG1      -10.2930   20.8370   29.2580 C.3   244  VAL244      0.0022
    169  CG2       -8.3640   22.2700   29.9370 C.3   244  VAL244      0.0022
    170  N        -12.4640   24.2270   23.3140 N.3   246  ALA246     -0.1231
    171  CA       -12.3960   25.3230   22.3520 C.3   246  ALA246      0.1694
    172  C        -13.4110   25.1540   21.2330 C.2   246  ALA246      0.2593
    173  O        -13.6660   24.0390   20.7950 O.2   246  ALA246     -0.2718
    174  CB       -10.9870   25.3880   21.7670 C.3   246  ALA246      0.0304
    175  N        -13.9930   26.2540   20.7710 N.am  247  GLY247     -0.1942
    176  CA       -14.9720   26.1720   19.7020 C.3   247  GLY247      0.2014
    177  C        -15.3570   27.5260   19.1240 C.2   247  GLY247      0.2639
    178  O        -14.6680   28.5210   19.3530 O.2   247  GLY247     -0.2714
    179  N        -16.4440   27.5610   18.3560 N.am  248  GLY248     -0.1954
    180  CA       -16.9070   28.8040   17.7740 C.3   248  GLY248      0.1869
    181  C        -17.9650   28.5720   16.7170 C.2   248  GLY248      0.2309
    182  O        -18.4230   27.4330   16.5470 O.2   248  GLY248     -0.2863
    183  N        -19.5170   28.6580   12.7710 N.3   250  TYR250     -0.1241
    184  CA       -19.0140   28.1370   11.5170 C.3   250  TYR250      0.1605
    185  C        -20.2110   28.0510   10.5900 C.2   250  TYR250      0.2264
    186  O        -20.5280   26.9980   10.0210 O.2   250  TYR250     -0.2867
    187  CB       -18.2770   26.8050   11.7100 C.3   250  TYR250      0.0534
    188  CG       -19.0580   25.6530   12.2710 C.ar  250  TYR250     -0.0201
    189  CD1      -19.1590   25.4350   13.6510 C.ar  250  TYR250     -0.0009
    190  CD2      -19.6060   24.7040   11.4130 C.ar  250  TYR250     -0.0009
    191  CE1      -19.7820   24.2850   14.1450 C.ar  250  TYR250      0.0417
    192  CE2      -20.2200   23.5660   11.8940 C.ar  250  TYR250      0.0417
    193  CZ       -20.2960   23.3620   13.2460 C.ar  250  TYR250      0.1957
    194  OH       -20.8360   22.1810   13.6370 O.3   250  TYR250     -0.2866
    195  N        -20.3180   25.0300   17.6500 N.3   266  GLY266     -0.1210
    196  CA       -20.0450   23.8450   18.4140 C.3   266  GLY266      0.1956
    197  C        -18.7610   24.0290   19.1510 C.2   266  GLY266      0.2612
    198  O        -18.2540   25.1440   19.2330 O.2   266  GLY266     -0.2717
    199  N        -18.2430   22.9440   19.7040 N.am  267  PHE267     -0.1962
    200  CA       -16.9870   22.9660   20.4210 C.3   267  PHE267      0.1771
    201  C        -16.5780   21.5380   20.6400 C.2   267  PHE267      0.2619
    202  O        -17.3650   20.6280   20.4040 O.2   267  PHE267     -0.2715
    203  CB       -17.1090   23.6950   21.7560 C.3   267  PHE267      0.0574
    204  CG       -17.9700   22.9980   22.7600 C.ar  267  PHE267     -0.0200
    205  CD1      -17.4860   21.9240   23.4860 C.ar  267  PHE267     -0.0042
    206  CD2      -19.2460   23.4350   23.0070 C.ar  267  PHE267     -0.0042
    207  CE1      -18.2610   21.2990   24.4520 C.ar  267  PHE267     -0.0003
    208  CE2      -20.0140   22.8210   23.9580 C.ar  267  PHE267     -0.0003
    209  CZ       -19.5170   21.7480   24.6840 C.ar  267  PHE267     -0.0000
    210  N        -15.3430   21.3380   21.0700 N.am  268  ALA268     -0.1977
    211  CA       -14.8430   19.9950   21.3220 C.3   268  ALA268      0.1597
    212  C        -13.8540   20.1020   22.4730 C.2   268  ALA268      0.2287
    213  O        -13.2110   21.1230   22.6510 O.2   268  ALA268     -0.2864
    214  CB       -14.2140   19.4090   20.0720 C.3   268  ALA268      0.0319
    215  N        -10.8530   18.1120   25.0220 N.3   270  GLY270     -0.1225
    216  CA        -9.8350   17.0990   25.1070 C.3   270  GLY270      0.1811
    217  C        -10.0000   16.3180   26.3720 C.2   270  GLY270      0.2280
    218  O         -9.5800   16.7600   27.4530 O.2   270  GLY270     -0.2866
    219  N         -8.3770   13.8350   27.5410 N.3   272  GLU272     -0.1231
    220  CA        -7.1320   13.5960   28.2990 C.3   272  GLU272      0.1699
    221  C         -6.7780   14.7740   29.1830 C.2   272  GLU272      0.2592
    222  O         -6.4240   14.5920   30.3490 O.2   272  GLU272     -0.2718
    223  CB        -5.9360   13.2960   27.4060 C.3   272  GLU272      0.0402
    224  CG        -5.9790   11.9570   26.7370 C.3   272  GLU272      0.1161
    225  CD        -6.7670   11.9990   25.4670 C.2   272  GLU272      0.3649
    226  OE1       -7.1830   13.0890   25.0020 O.co2 272  GLU272     -0.2457
    227  OE2       -6.9470   10.9240   24.9170 O.co2 272  GLU272     -0.2457
    228  N         -6.8840   15.9790   28.6220 N.am  273  ARG273     -0.1980
    229  CA        -6.5700   17.1970   29.3540 C.3   273  ARG273      0.1597
    230  C         -7.4940   17.3300   30.5550 C.2   273  ARG273      0.2287
    231  O         -7.0490   17.6410   31.6670 O.2   273  ARG273     -0.2864
    232  CB        -6.6530   18.4170   28.4290 C.3   273  ARG273      0.0334
    233  CG        -5.6220   18.3600   27.3240 C.3   273  ARG273      0.0492
    234  CD        -5.5610   19.5860   26.4270 C.3   273  ARG273      0.2205
    235  NE        -4.3340   19.4950   25.6400 N.pl3 273  ARG273     -0.0865
    236  CZ        -3.9250   20.3450   24.6950 C.cat 273  ARG273      0.5346
    237  NH1       -4.5790   21.4630   24.3980 N.pl3 273  ARG273      0.1354
    238  NH2       -2.7960   20.0770   24.0580 N.pl3 273  ARG273      0.1354
@<TRIPOS>BOND
     1   136   133    1
     2   136   137    1
     3   133   132    1
     4   133   134    1
     5   135   134    2
     6   134   144   am
     7   186   185    2
     8   139   137   ar
     9   139   141   ar
    10   137   138   ar
    11   185   184    1
    12   147   146    2
    13    17    16    2
    14   144   145    1
    15   141   142   ar
    16   126   127    2
    17   126   125    1
    18   190   192   ar
    19   190   188   ar
    20    16    15    1
    21     9     7   ar
    22   184   187    1
    23   184   183    1
    24   146   145    1
    25   138   140   ar
    26   187   188    1
    27   125   128    1
    28   125   124    1
    29   192   193   ar
    30   145   148    1
    31   123   122    2
    32   188   189   ar
    33   128   129    1
    34   142   140   ar
    35   142   143    1
    36    20    18    1
    37     7     6    1
    38     7     8   ar
    39     6     5    1
    40   130   129    1
    41    15    18    1
    42    15    14    1
    43    13    12    2
    44   124   122   am
    45    18    19    1
    46   122   121    1
    47     4     3    2
    48   148   149    1
    49   193   194    1
    50   193   191   ar
    51   129   131    1
    52    12    14   am
    53    12    11    1
    54   189   191   ar
    55     1     2    1
    56   151   149   ar
    57   151   153   ar
    58   149   150   ar
    59     3     2    1
    60     3    10   am
    61   112   111    2
    62     5     2    1
    63    11    10    1
    64   121   120    1
    65   153   154   ar
    66   150   152   ar
    67    34    35    1
    68    34    33    1
    69    34    37    1
    70    35    36    2
    71   111   120   am
    72   111   110    1
    73    38    37    1
    74    38    39    1
    75   154   152   ar
    76   154   155    1
    77    40    39    1
    78    40    41    2
    79    43    41    1
    80    44    45    1
    81   107   106   ar
    82    41    42    1
    83   106   108   ar
    84   106   105    1
    85   109   110    1
    86   104   105    1
    87   104   101    1
    88   113   110    1
    89   113   114    1
    90    45    48    1
    91    45    46    1
    92   182   181    2
    93    49    48    1
    94    49    50    1
    95    30    28   ar
    96    30    31   ar
    97   181   180    1
    98    32    31    1
    99    28    26   ar
   100   114   115    1
   101    31    29   ar
   102   102   101    1
   103   102   103    2
   104   101   100    1
   105    46    47    2
   106    50    52   ar
   107    50    51   ar
   108   195   196    1
   109   180   179    1
   110   118   117    1
   111    26    27   ar
   112    26    25    1
   113    29    27   ar
   114    88    90   ar
   115    88    86   ar
   116    90    89   ar
   117   179   177   am
   118   196   197    1
   119    25    22    1
   120   117   119    1
   121   117   116    2
   122    98    97    2
   123   115   116    1
   124   177   178    2
   125   177   176    1
   126   197   198    2
   127   197   199   am
   128    86    85   ar
   129    99    97   am
   130    97    96    1
   131    89    87   ar
   132   176   175    1
   133   199   200    1
   134    67    65    1
   135    71    70    2
   136    22    21    1
   137    22    23    1
   138   214   211    1
   139    65    64    2
   140    65    66    1
   141    64    63    1
   142    96    95    1
   143    85    87   ar
   144    85    84    1
   145    83    82    2
   146   202   201    2
   147    80    81    1
   148   200   201    1
   149   200   203    1
   150    70    69    1
   151   201   210   am
   152    95    92    1
   153    23    24    2
   154   175   172   am
   155   173   172    2
   156    63    62    1
   157   210   211    1
   158   172   171    1
   159   211   212    1
   160    82    81    1
   161    81    84    1
   162   203   204    1
   163   174   171    1
   164    91    92    1
   165    69    68    1
   166    69    72    1
   167    94    93    2
   168    92    93    1
   169    68    59   am
   170    61    62    1
   171    61    58    1
   172   171   170    1
   173   212   213    2
   174   204   206   ar
   175   204   205   ar
   176    72    73    1
   177    59    58    1
   178    59    60    2
   179   206   208   ar
   180    58    57    1
   181   205   207   ar
   182   208   209   ar
   183   238   236    1
   184   162   160    1
   185    73    75   ar
   186    73    74   ar
   187   237   236    1
   188   161   160    1
   189   207   209   ar
   190    57    55   am
   191   236   235    2
   192    75    77   ar
   193   227   225   ar
   194    56    55    2
   195   226   225   ar
   196   215   216    1
   197   160   157    1
   198    74    76   ar
   199   216   217    1
   200    55    54    1
   201   225   224    1
   202   235   234    1
   203   159   158    2
   204    77    78   ar
   205   217   218    2
   206   157   158    1
   207   157   156    1
   208   166   165    2
   209   234   233    1
   210    76    78   ar
   211   158   163   am
   212   165   164    1
   213   224   223    1
   214    54    53    1
   215    78    79    1
   216   233   232    1
   217   163   164    1
   218   223   220    1
   219   219   220    1
   220   164   167    1
   221   220   221    1
   222   232   229    1
   223   228   221   am
   224   228   229    1
   225   167   168    1
   226   167   169    1
   227   221   222    2
   228   229   230    1
   229   230   231    2
