@<TRIPOS>MOLECULE
tmp/1kmnC01.pdb
 175 165 0 0 0
SMALL
GASTEIGER

@<TRIPOS>ATOM
      1  N          8.4760    4.8670  -12.0260 N.3    79  PRO79      -0.2102
      2  CA         7.7750    5.6330  -13.0440 C.3    79  PRO79       0.1504
      3  C          8.8060    6.3740  -13.9130 C.2    79  PRO79       0.2575
      4  O          8.4420    7.0260  -14.9050 O.2    79  PRO79      -0.2718
      5  CB         6.9320    6.5880  -12.2080 C.3    79  PRO79       0.0282
      6  CG         7.8800    6.9240  -11.1020 C.3    79  PRO79       0.0208
      7  CD         8.3820    5.5480  -10.7260 C.3    79  PRO79       0.0893
      8  N         10.0680    6.3700  -13.4780 N.am   80  GLU80      -0.1980
      9  CA        11.1790    6.9930  -14.2240 C.3    80  GLU80       0.1602
     10  C         12.5100    6.4020  -13.8430 C.2    80  GLU80       0.2287
     11  O         12.5450    5.5490  -12.9570 O.2    80  GLU80      -0.2864
     12  CB        11.2150    8.4870  -14.0640 C.3    80  GLU80       0.0415
     13  CG        11.0920    8.8930  -12.6960 C.3    80  GLU80       0.1163
     14  CD        12.3730    9.2750  -12.1380 C.2    80  GLU80       0.3649
     15  OE1       13.0410    8.3920  -11.6100 O.co2  80  GLU80      -0.2457
     16  OE2       12.6930   10.4710  -12.1910 O.co2  80  GLU80      -0.2457
     17  N          3.4560    3.4710  -14.8960 N.3   110  ARG110     -0.1245
     18  CA         2.5850    4.5280  -14.4080 C.3   110  ARG110      0.1563
     19  C          1.1070    4.1630  -14.6130 C.2   110  ARG110      0.2260
     20  O          0.7400    3.4380  -15.5470 O.2   110  ARG110     -0.2867
     21  CB         2.8950    5.8300  -15.0950 C.3   110  ARG110      0.0307
     22  CG         4.2670    6.3260  -14.8020 C.3   110  ARG110      0.0489
     23  CD         4.6320    7.3180  -15.8740 C.3   110  ARG110      0.2205
     24  NE         5.5840    8.3480  -15.4700 N.pl3 110  ARG110     -0.0865
     25  CZ         5.3350    9.6570  -15.5830 C.cat 110  ARG110      0.5346
     26  NH1        4.1390   10.1110  -15.9800 N.pl3 110  ARG110      0.1354
     27  NH2        6.2630   10.5200  -15.2320 N.pl3 110  ARG110      0.1354
     28  N         -1.9600    5.6080  -15.7020 N.3   112  GLU112     -0.1245
     29  CA        -2.6530    6.7140  -16.3680 C.3   112  GLU112      0.1567
     30  C         -3.7560    6.1900  -17.3150 C.2   112  GLU112      0.2260
     31  O         -3.9430    4.9720  -17.4750 O.2   112  GLU112     -0.2867
     32  CB        -1.6830    7.6020  -17.1460 C.3   112  GLU112      0.0388
     33  CG        -0.4800    8.0960  -16.3620 C.3   112  GLU112      0.1160
     34  CD         0.5440    8.8190  -17.2280 C.2   112  GLU112      0.3649
     35  OE1        0.3590    8.8690  -18.4620 O.co2 112  GLU112     -0.2457
     36  OE2        1.5430    9.3420  -16.6800 O.co2 112  GLU112     -0.2457
     37  N         -0.4020    8.0410  -27.1250 N.3   117  GLY117     -0.1210
     38  CA         0.9540    7.9680  -26.6350 C.3   117  GLY117      0.1956
     39  C          1.1770    7.4830  -25.2220 C.2   117  GLY117      0.2612
     40  O          2.3020    7.0590  -24.9070 O.2   117  GLY117     -0.2717
     41  N          0.1430    7.5490  -24.3740 N.am  118  ARG118     -0.1965
     42  CA         0.2820    7.1570  -22.9690 C.3   118  ARG118      0.1729
     43  C         -0.1770    5.7640  -22.6380 C.2   118  ARG118      0.2616
     44  O         -1.3390    5.4380  -22.8110 O.2   118  ARG118     -0.2715
     45  CB        -0.3650    8.1910  -22.0670 C.3   118  ARG118      0.0348
     46  CG         0.0290    9.6470  -22.4430 C.3   118  ARG118      0.0492
     47  CD        -0.5020   10.6990  -21.4670 C.3   118  ARG118      0.2205
     48  NE        -1.7110   10.1860  -20.8190 N.pl3 118  ARG118     -0.0865
     49  CZ        -2.9180   10.7760  -20.7890 C.cat 118  ARG118      0.5346
     50  NH1       -3.1220   11.9840  -21.3390 N.pl3 118  ARG118      0.1354
     51  NH2       -3.9170   10.1540  -20.1590 N.pl3 118  ARG118      0.1354
     52  N          0.7840    4.9530  -22.2070 N.am  119  TYR119     -0.1974
     53  CA         0.6140    3.5470  -21.8460 C.3   119  TYR119      0.1639
     54  C          0.9340    3.3660  -20.3550 C.2   119  TYR119      0.2290
     55  O          1.5170    4.2520  -19.7340 O.2   119  TYR119     -0.2864
     56  CB         1.5670    2.6960  -22.6850 C.3   119  TYR119      0.0560
     57  CG         1.3450    2.8770  -24.1660 C.ar  119  TYR119     -0.0198
     58  CD1        1.8480    3.9990  -24.8560 C.ar  119  TYR119     -0.0009
     59  CD2        0.5350    1.9970  -24.8460 C.ar  119  TYR119     -0.0009
     60  CE1        1.5110    4.2440  -26.1840 C.ar  119  TYR119      0.0417
     61  CE2        0.1910    2.2110  -26.1460 C.ar  119  TYR119      0.0417
     62  CZ         0.6570    3.3350  -26.8320 C.ar  119  TYR119      0.1957
     63  OH         0.1480    3.5440  -28.1180 O.3   119  TYR119     -0.2866
     64  N          5.4590    1.5820  -20.3020 N.3   122  PHE122     -0.1241
     65  CA         6.0670    2.2400  -21.4140 C.3   122  PHE122      0.1605
     66  C          7.5900    2.0190  -21.3460 C.2   122  PHE122      0.2264
     67  O          8.1160    1.4970  -20.3390 O.2   122  PHE122     -0.2867
     68  CB         5.6350    3.7150  -21.4390 C.3   122  PHE122      0.0534
     69  CG         6.2000    4.5680  -20.3100 C.ar  122  PHE122     -0.0203
     70  CD1        5.7460    4.4310  -19.0060 C.ar  122  PHE122     -0.0042
     71  CD2        7.1700    5.5530  -20.5710 C.ar  122  PHE122     -0.0042
     72  CE1        6.2420    5.2670  -17.9810 C.ar  122  PHE122     -0.0003
     73  CE2        7.6690    6.3930  -19.5510 C.ar  122  PHE122     -0.0003
     74  CZ         7.2040    6.2500  -18.2580 C.ar  122  PHE122     -0.0000
     75  N         11.5100    3.5810  -21.9850 N.3   124  GLN124     -0.1245
     76  CA        12.2930    4.8100  -22.0470 C.3   124  GLN124      0.1566
     77  C         13.7530    4.5210  -22.3170 C.2   124  GLN124      0.2260
     78  O         14.2840    3.4500  -21.9720 O.2   124  GLN124     -0.2867
     79  CB        12.2090    5.6090  -20.7090 C.3   124  GLN124      0.0367
     80  CG        11.0110    6.5950  -20.5190 C.3   124  GLN124      0.0905
     81  CD        11.2760    7.6290  -19.4190 C.2   124  GLN124      0.2608
     82  OE1       12.0650    7.3730  -18.5000 O.2   124  GLN124     -0.2717
     83  NE2       10.6510    8.8110  -19.5300 N.am  124  GLN124     -0.0878
     84  N          8.6690   21.3410  -15.7890 N.3   222  ARG222     -0.1231
     85  CA         8.3700   19.9460  -15.9830 C.3   222  ARG222      0.1694
     86  C          7.5240   19.3280  -14.9080 C.2   222  ARG222      0.2593
     87  O          7.0930   20.0130  -13.9990 O.2   222  ARG222     -0.2718
     88  CB         9.6400   19.1660  -16.2210 C.3   222  ARG222      0.0321
     89  CG        10.2990   19.5050  -17.5610 C.3   222  ARG222      0.0489
     90  CD         9.6260   18.8120  -18.7370 C.3   222  ARG222      0.2205
     91  NE         9.5740   17.3600  -18.6040 N.pl3 222  ARG222     -0.0865
     92  CZ        10.5420   16.6100  -18.0840 C.cat 222  ARG222      0.5346
     93  NH1       11.6520   17.1440  -17.6460 N.pl3 222  ARG222      0.1354
     94  NH2       10.4150   15.3000  -18.0040 N.pl3 222  ARG222      0.1354
     95  N          7.2640   18.0370  -15.0330 N.am  223  GLY223     -0.1942
     96  CA         6.4480   17.3740  -14.0430 C.3   223  GLY223      0.2014
     97  C          7.1110   16.9090  -12.7430 C.2   223  GLY223      0.2638
     98  O          6.4000   16.4670  -11.8200 O.2   223  GLY223     -0.2714
     99  N          8.4450   17.0190  -12.6330 N.am  224  LEU224     -0.1977
    100  CA         9.1910   16.5480  -11.4380 C.3   224  LEU224      0.1596
    101  C          9.8620   17.6690  -10.5710 C.2   224  LEU224      0.2287
    102  O         10.4210   18.6490  -11.0990 O.2   224  LEU224     -0.2864
    103  CB        10.2290   15.4830  -11.8620 C.3   224  LEU224      0.0297
    104  CG        10.1120   14.2950  -12.8750 C.3   224  LEU224      0.0022
    105  CD1        9.8120   12.9860  -12.2470 C.3   224  LEU224      0.0001
    106  CD2        9.1970   14.5470  -14.0400 C.3   224  LEU224      0.0001
    107  N         14.1610   19.0860  -10.9710 N.3   227  TYR227     -0.1241
    108  CA        14.7710   19.9510  -11.9960 C.3   227  TYR227      0.1605
    109  C         15.2340   21.2970  -11.4190 C.2   227  TYR227      0.2264
    110  O         14.7270   21.7330  -10.4040 O.2   227  TYR227     -0.2867
    111  CB        13.8320   20.2070  -13.2010 C.3   227  TYR227      0.0534
    112  CG        13.4900   18.9650  -13.9630 C.ar  227  TYR227     -0.0201
    113  CD1       14.4710   18.2140  -14.5700 C.ar  227  TYR227     -0.0009
    114  CD2       12.1830   18.4880  -13.9920 C.ar  227  TYR227     -0.0009
    115  CE1       14.1800   17.0060  -15.1890 C.ar  227  TYR227      0.0417
    116  CE2       11.8690   17.2690  -14.6100 C.ar  227  TYR227      0.0417
    117  CZ        12.8750   16.5250  -15.2150 C.ar  227  TYR227      0.1957
    118  OH        12.5490   15.3310  -15.8850 O.3   227  TYR227     -0.2866
    119  N          1.8280   11.8240  -27.9300 N.3   242  GLN242     -0.1245
    120  CA         1.2770   12.8780  -27.0950 C.3   242  GLN242      0.1566
    121  C          2.0540   14.1510  -27.3310 C.2   242  GLN242      0.2260
    122  O          1.8950   15.1230  -26.5930 O.2   242  GLN242     -0.2867
    123  CB         1.3290   12.5130  -25.6170 C.3   242  GLN242      0.0367
    124  CG         0.1420   13.0740  -24.8120 C.3   242  GLN242      0.0905
    125  CD        -1.1990   12.5500  -25.3040 C.2   242  GLN242      0.2608
    126  OE1       -1.4430   11.3360  -25.3070 O.2   242  GLN242     -0.2717
    127  NE2       -2.0680   13.4580  -25.7450 N.am  242  GLN242     -0.0878
    128  N          5.4200   15.1910  -26.9690 N.3   244  THR244     -0.1203
    129  CA         6.8010   15.2400  -26.5990 C.3   244  THR244      0.1994
    130  C          7.3380   13.8270  -26.6800 C.2   244  THR244      0.2617
    131  O          6.6700   12.8580  -26.3090 O.2   244  THR244     -0.2717
    132  CB         7.0510   15.8370  -25.2120 C.3   244  THR244      0.1784
    133  OG1        6.8100   14.8580  -24.2060 O.3   244  THR244     -0.2211
    134  CG2        6.1830   17.0320  -24.9830 C.3   244  THR244      0.0376
    135  N          8.5170   13.7040  -27.2650 N.am  245  VAL245     -0.1979
    136  CA         9.1420   12.4080  -27.4010 C.3   245  VAL245      0.1595
    137  C         10.3230   12.3190  -26.4530 C.2   245  VAL245      0.2287
    138  O         10.6550   11.2340  -25.9560 O.2   245  VAL245     -0.2864
    139  CB         9.6640   12.1950  -28.8300 C.3   245  VAL245      0.0276
    140  CG1       10.0600   10.7160  -29.0360 C.3   245  VAL245      0.0022
    141  CG2        8.6290   12.6560  -29.8610 C.3   245  VAL245      0.0022
    142  N         12.2730   14.6030  -23.1660 N.3   247  ALA247     -0.1245
    143  CA        12.1970   15.7270  -22.2470 C.3   247  ALA247      0.1562
    144  C         13.1530   15.4840  -21.1100 C.2   247  ALA247      0.2260
    145  O         13.4770   14.3360  -20.7660 O.2   247  ALA247     -0.2867
    146  CB        10.8040   15.8730  -21.7030 C.3   247  ALA247      0.0290
    147  N         15.0500   11.7690  -20.9390 N.3   269  ALA269     -0.1245
    148  CA        14.5800   10.4280  -21.2080 C.3   269  ALA269      0.1562
    149  C         13.5490   10.5930  -22.3290 C.2   269  ALA269      0.2260
    150  O         12.8930   11.6530  -22.4690 O.2   269  ALA269     -0.2867
    151  CB        14.0000    9.8160  -19.9620 C.3   269  ALA269      0.0290
    152  N         10.5520    8.6980  -24.8980 N.3   271  GLY271     -0.1225
    153  CA         9.5850    7.6500  -25.0340 C.3   271  GLY271      0.1811
    154  C          9.8100    6.8690  -26.3120 C.2   271  GLY271      0.2280
    155  O          9.4600    7.3440  -27.4240 O.2   271  GLY271     -0.2866
    156  N          8.2110    4.3560  -27.5630 N.3   273  GLU273     -0.1231
    157  CA         7.0080    4.0280  -28.3410 C.3   273  GLU273      0.1699
    158  C          6.6710    5.1970  -29.1960 C.2   273  GLU273      0.2592
    159  O          6.3820    5.0130  -30.3760 O.2   273  GLU273     -0.2718
    160  CB         5.7730    3.7050  -27.4840 C.3   273  GLU273      0.0402
    161  CG         5.7880    2.3930  -26.7550 C.3   273  GLU273      0.1161
    162  CD         6.4460    2.5240  -25.4220 C.2   273  GLU273      0.3649
    163  OE1        6.8260    3.6710  -25.0440 O.co2 273  GLU273     -0.2457
    164  OE2        6.5650    1.4790  -24.7520 O.co2 273  GLU273     -0.2457
    165  N          6.6710    6.3850  -28.5980 N.am  274  ARG274     -0.1980
    166  CA         6.3580    7.5780  -29.3490 C.3   274  ARG274      0.1597
    167  C          7.3590    7.7610  -30.5090 C.2   274  ARG274      0.2287
    168  O          6.9670    8.0390  -31.6920 O.2   274  ARG274     -0.2864
    169  CB         6.3910    8.7610  -28.4310 C.3   274  ARG274      0.0334
    170  CG         5.0620    9.3240  -28.1390 C.3   274  ARG274      0.0492
    171  CD         5.2060   10.5530  -27.3090 C.3   274  ARG274      0.2205
    172  NE         5.5920   10.1860  -25.9620 N.pl3 274  ARG274     -0.0865
    173  CZ         4.7410   10.1640  -24.9370 C.cat 274  ARG274      0.5346
    174  NH1        3.4780   10.5490  -25.0860 N.pl3 274  ARG274      0.1354
    175  NH2        5.1650    9.8010  -23.7450 N.pl3 274  ARG274      0.1354
@<TRIPOS>BOND
     1   168   167    2
     2   167   166    1
     3   159   158    2
     4   141   139    1
     5   166   165    1
     6   166   169    1
     7   158   165   am
     8   158   157    1
     9   140   139    1
    10   139   136    1
    11   169   170    1
    12   157   156    1
    13   157   160    1
    14   170   171    1
    15    63    62    1
    16   119   120    1
    17   160   161    1
    18   155   154    2
    19   136   135    1
    20   136   137    1
    21   121   120    1
    22   121   122    2
    23   171   172    1
    24   135   130   am
    25    37    38    1
    26   120   123    1
    27   128   129    1
    28    62    60   ar
    29    62    61   ar
    30   161   162    1
    31   130   129    1
    32   130   131    2
    33    38    39    1
    34   129   132    1
    35   137   138    2
    36   154   153    1
    37    60    58   ar
    38    61    59   ar
    39   172   173    2
    40   127   125   am
    41   123   124    1
    42   162   163   ar
    43   162   164   ar
    44   126   125    2
    45   125   124    1
    46    39    40    2
    47    39    41   am
    48   132   134    1
    49   132   133    1
    50   174   173    1
    51   153   152    1
    52   173   175    1
    53    58    57   ar
    54    59    57   ar
    55    41    42    1
    56    57    56    1
    57   142   143    1
    58    42    43    1
    59    42    45    1
    60    44    43    2
    61    56    53    1
    62    43    52   am
    63   150   149    2
    64    46    45    1
    65    46    47    1
    66   149   148    1
    67    77    76    1
    68    77    78    2
    69   143   146    1
    70   143   144    1
    71    52    53    1
    72    76    75    1
    73    76    79    1
    74    53    54    1
    75    47    48    1
    76    68    65    1
    77    68    69    1
    78    65    66    1
    79    65    64    1
    80    66    67    2
    81    50    49    1
    82   148   147    1
    83   148   151    1
    84   144   145    2
    85    48    49    2
    86    49    51    1
    87    79    80    1
    88    71    69   ar
    89    71    73   ar
    90    80    81    1
    91    54    55    2
    92    69    70   ar
    93    73    74   ar
    94    83    81   am
    95    81    82    2
    96    70    72   ar
    97    90    91    1
    98    90    89    1
    99    91    92    2
   100    35    34   ar
   101    74    72   ar
   102    92    94    1
   103    92    93    1
   104    89    88    1
   105    31    30    2
   106    30    29    1
   107    34    36   ar
   108    34    33    1
   109    32    29    1
   110    32    33    1
   111    29    28    1
   112    88    85    1
   113    85    84    1
   114    85    86    1
   115    26    25    1
   116   118   117    1
   117    23    24    1
   118    23    22    1
   119    25    24    2
   120    25    27    1
   121    20    19    2
   122   117   115   ar
   123   117   116   ar
   124   115   113   ar
   125    21    22    1
   126    21    18    1
   127    95    86   am
   128    95    96    1
   129    86    87    2
   130     4     3    2
   131    17    18    1
   132    19    18    1
   133   116   114   ar
   134   113   112   ar
   135     9    12    1
   136     9    10    1
   137     9     8    1
   138    12    13    1
   139    96    97    1
   140   106   104    1
   141   114   112   ar
   142   112   111    1
   143     3     8   am
   144     3     2    1
   145    10    11    2
   146   111   108    1
   147     2     5    1
   148     2     1    1
   149   104   105    1
   150   104   103    1
   151    97    99   am
   152    97    98    2
   153    13    14    1
   154    99   100    1
   155     5     6    1
   156    16    14   ar
   157    14    15   ar
   158     1     7    1
   159   108   109    1
   160   108   107    1
   161   103   100    1
   162   100   101    1
   163   109   110    2
   164     6     7    1
   165   102   101    2
