@<TRIPOS>MOLECULE
tmp/1kmnB01.pdb
 190 178 0 0 0
SMALL
GASTEIGER

@<TRIPOS>ATOM
      1  N         -6.8020  -12.5780    6.5930 N.3    60  VAL60      -0.1245
      2  CA        -6.8310  -11.2680    7.2600 C.3    60  VAL60       0.1561
      3  C         -5.5820  -10.4580    6.8370 C.2    60  VAL60       0.2260
      4  O         -5.6880   -9.4170    6.1540 O.2    60  VAL60      -0.2867
      5  CB        -6.8640  -11.4090    8.8510 C.3    60  VAL60       0.0252
      6  CG1       -7.1050  -10.0460    9.5240 C.3    60  VAL60       0.0019
      7  CG2       -7.9220  -12.4250    9.2810 C.3    60  VAL60       0.0019
      8  N         -8.7410   -6.1980   14.7070 N.3    81  GLU81      -0.1245
      9  CA        -9.2120   -6.8230   15.9330 C.3    81  GLU81       0.1567
     10  C         -8.5460   -6.1560   17.1290 C.2    81  GLU81       0.2260
     11  O         -7.6610   -5.3320   16.9580 O.2    81  GLU81      -0.2867
     12  CB        -8.7840   -8.2510   15.9360 C.3    81  GLU81       0.0388
     13  CG        -7.3450   -8.3330   16.1080 C.3    81  GLU81       0.1160
     14  CD        -6.9580   -9.6290   16.6700 C.2    81  GLU81       0.3649
     15  OE1       -7.2070  -10.6650   16.0090 O.co2  81  GLU81      -0.2457
     16  OE2       -6.4230   -9.6040   17.7880 O.co2  81  GLU81      -0.2457
     17  N        -11.3920   -3.5260    8.3430 N.3   111  ARG111     -0.1245
     18  CA       -10.9890   -4.6070    7.4620 C.3   111  ARG111      0.1563
     19  C        -11.4020   -4.3040    6.0380 C.2   111  ARG111      0.2260
     20  O        -12.5210   -3.8560    5.7950 O.2   111  ARG111     -0.2867
     21  CB       -11.5980   -5.9180    7.8840 C.3   111  ARG111      0.0307
     22  CG       -11.0480   -6.4730    9.1680 C.3   111  ARG111      0.0489
     23  CD       -11.4610   -7.9210    9.2620 C.3   111  ARG111      0.2205
     24  NE       -11.4510   -8.4330   10.6270 N.pl3 111  ARG111     -0.0865
     25  CZ       -11.8320   -9.6640   10.9650 C.cat 111  ARG111      0.5346
     26  NH1      -12.2150  -10.5390   10.0270 N.pl3 111  ARG111      0.1354
     27  NH2      -11.7990  -10.0280   12.2360 N.pl3 111  ARG111      0.1354
     28  N        -12.8420   -5.4770    3.2220 N.3   113  GLU113     -0.1245
     29  CA       -13.6280   -6.5800    2.6650 C.3   113  GLU113      0.1567
     30  C        -14.6650   -6.0230    1.6760 C.2   113  GLU113      0.2260
     31  O        -15.2150   -4.9450    1.9000 O.2   113  GLU113     -0.2867
     32  CB       -14.3040   -7.3780    3.8010 C.3   113  GLU113      0.0388
     33  CG       -13.3340   -8.1510    4.7260 C.3   113  GLU113      0.1160
     34  CD       -13.8530   -8.2630    6.1540 C.2   113  GLU113      0.3649
     35  OE1      -14.6780   -7.4020    6.5220 O.co2 113  GLU113     -0.2457
     36  OE2      -13.4400   -9.1850    6.9070 O.co2 113  GLU113     -0.2457
     37  N        -23.4990   -8.3260    6.8970 N.3   118  GLY118     -0.1210
     38  CA       -22.9950   -7.9220    8.1990 C.3   118  GLY118      0.1956
     39  C        -21.4810   -7.8260    8.1650 C.2   118  GLY118      0.2612
     40  O        -20.7840   -8.2380    9.0990 O.2   118  GLY118     -0.2717
     41  N        -20.9860   -7.2750    7.0580 N.am  119  ARG119     -0.1965
     42  CA       -19.5680   -7.1220    6.8380 C.3   119  ARG119      0.1729
     43  C        -19.2670   -5.7020    6.3590 C.2   119  ARG119      0.2616
     44  O        -19.6040   -5.3390    5.2250 O.2   119  ARG119     -0.2715
     45  CB       -19.1320   -8.1260    5.7880 C.3   119  ARG119      0.0348
     46  CG       -17.8950   -8.8840    6.1700 C.3   119  ARG119      0.0492
     47  CD       -18.1720   -9.7940    7.3230 C.3   119  ARG119      0.2205
     48  NE       -16.9650  -10.0780    8.0890 N.pl3 119  ARG119     -0.0865
     49  CZ       -16.8190  -11.1540    8.8500 C.cat 119  ARG119      0.5346
     50  NH1      -17.8160  -12.0330    8.9270 N.pl3 119  ARG119      0.1354
     51  NH2      -15.6990  -11.3280    9.5500 N.pl3 119  ARG119      0.1354
     52  N        -18.6890   -4.8900    7.2470 N.am  120  TYR120     -0.1974
     53  CA       -18.3350   -3.5050    6.9230 C.3   120  TYR120      0.1639
     54  C        -16.8100   -3.3970    6.9150 C.2   120  TYR120      0.2290
     55  O        -16.1270   -4.3890    7.1660 O.2   120  TYR120     -0.2864
     56  CB       -18.9690   -2.5490    7.9450 C.3   120  TYR120      0.0560
     57  CG       -20.4510   -2.7670    8.0470 C.ar  120  TYR120     -0.0198
     58  CD1      -21.3210   -2.1850    7.1380 C.ar  120  TYR120     -0.0009
     59  CD2      -20.9670   -3.6640    8.9690 C.ar  120  TYR120     -0.0009
     60  CE1      -22.6710   -2.4940    7.1290 C.ar  120  TYR120      0.0417
     61  CE2      -22.3220   -3.9850    8.9710 C.ar  120  TYR120      0.0417
     62  CZ       -23.1720   -3.4000    8.0480 C.ar  120  TYR120      0.1957
     63  OH       -24.5150   -3.7420    8.0490 O.3   120  TYR120     -0.2866
     64  N        -16.2280   -1.4920   11.5160 N.3   123  PHE123     -0.1241
     65  CA       -17.2760   -2.1170   12.2690 C.3   123  PHE123      0.1605
     66  C        -16.8960   -1.9220   13.7100 C.2   123  PHE123      0.2264
     67  O        -15.8440   -1.3690   13.9950 O.2   123  PHE123     -0.2867
     68  CB       -17.4210   -3.5870   11.8810 C.3   123  PHE123      0.0534
     69  CG       -16.1890   -4.4270   12.1600 C.ar  123  PHE123     -0.0203
     70  CD1      -15.9020   -4.8750   13.4540 C.ar  123  PHE123     -0.0042
     71  CD2      -15.3400   -4.8070   11.1230 C.ar  123  PHE123     -0.0042
     72  CE1      -14.7940   -5.6850   13.7100 C.ar  123  PHE123     -0.0003
     73  CE2      -14.2380   -5.6120   11.3720 C.ar  123  PHE123     -0.0003
     74  CZ       -13.9610   -6.0530   12.6760 C.ar  123  PHE123     -0.0000
     75  N        -16.6720   -3.5020   17.6600 N.3   125  GLN125     -0.1245
     76  CA       -16.5730   -4.6770   18.4710 C.3   125  GLN125      0.1566
     77  C        -16.5290   -4.4020   19.9650 C.2   125  GLN125      0.2260
     78  O        -15.9210   -3.4200   20.4310 O.2   125  GLN125     -0.2867
     79  CB       -15.2600   -5.4100   18.1710 C.3   125  GLN125      0.0367
     80  CG       -15.1720   -6.1780   16.8750 C.3   125  GLN125      0.0905
     81  CD       -14.2630   -7.3980   17.0070 C.2   125  GLN125      0.2608
     82  OE1      -13.2630   -7.3820   17.7450 O.2   125  GLN125     -0.2717
     83  NE2      -14.6280   -8.4800   16.3150 N.am  125  GLN125     -0.0878
     84  N        -11.4570  -21.5610   14.0070 N.3   199  ARG199     -0.1231
     85  CA       -11.5900  -20.1260   13.8090 C.3   199  ARG199      0.1694
     86  C        -10.7240  -19.5830   12.6270 C.2   199  ARG199      0.2593
     87  O        -10.0250  -20.3450   11.9530 O.2   199  ARG199     -0.2718
     88  CB       -11.3020  -19.4200   15.1520 C.3   199  ARG199      0.0321
     89  CG       -12.0330  -20.0710   16.3360 C.3   199  ARG199      0.0489
     90  CD       -13.0220  -19.1470   17.0230 C.3   199  ARG199      0.2205
     91  NE       -13.8130  -18.3800   16.0700 N.pl3 199  ARG199     -0.0865
     92  CZ       -13.5720  -17.1130   15.7570 C.cat 199  ARG199      0.5346
     93  NH1      -12.5560  -16.4670   16.3140 N.pl3 199  ARG199      0.1354
     94  NH2      -14.3410  -16.4770   14.8750 N.pl3 199  ARG199      0.1354
     95  N        -10.8160  -18.2870   12.3400 N.am  200  GLY200     -0.1942
     96  CA       -10.0130  -17.7460   11.2580 C.3   200  GLY200      0.2014
     97  C         -8.6000  -17.2890   11.6370 C.2   200  GLY200      0.2638
     98  O         -7.8130  -16.9010   10.7520 O.2   200  GLY200     -0.2714
     99  N         -8.2710  -17.3170   12.9350 N.am  201  LEU201     -0.1977
    100  CA        -6.9710  -16.8570   13.4150 C.3   201  LEU201      0.1596
    101  C         -5.9980  -17.9770   13.8290 C.2   201  LEU201      0.2287
    102  O         -6.4060  -19.0990   14.1530 O.2   201  LEU201     -0.2864
    103  CB        -7.1360  -15.8240   14.5500 C.3   201  LEU201      0.0297
    104  CG        -8.0390  -14.5710   14.4400 C.3   201  LEU201      0.0022
    105  CD1       -7.2640  -13.3590   14.8960 C.3   201  LEU201      0.0001
    106  CD2       -8.5850  -14.3120   13.0350 C.3   201  LEU201      0.0001
    107  N         -5.5630  -19.1560   18.3940 N.3   204  TYR204     -0.1241
    108  CA        -6.4600  -20.0150   19.1610 C.3   204  TYR204      0.1605
    109  C         -5.8560  -21.3810   19.5010 C.2   204  TYR204      0.2264
    110  O         -4.9950  -21.8450   18.7810 O.2   204  TYR204     -0.2867
    111  CB        -7.7420  -20.2280   18.3590 C.3   204  TYR204      0.0534
    112  CG        -8.5690  -18.9820   18.2430 C.ar  204  TYR204     -0.0201
    113  CD1       -9.1450  -18.3980   19.3730 C.ar  204  TYR204     -0.0009
    114  CD2       -8.7650  -18.3700   17.0160 C.ar  204  TYR204     -0.0009
    115  CE1       -9.8910  -17.2340   19.2810 C.ar  204  TYR204      0.0417
    116  CE2       -9.5150  -17.1980   16.9040 C.ar  204  TYR204      0.0417
    117  CZ       -10.0770  -16.6340   18.0450 C.ar  204  TYR204      0.1957
    118  OH       -10.8430  -15.4880   17.9450 O.3   204  TYR204     -0.2866
    119  N        -18.6170  -19.9700   19.3910 N.3   210  GLU210     -0.1245
    120  CA       -19.3410  -18.8620   18.7760 C.3   210  GLU210      0.1567
    121  C        -20.8310  -18.9080   19.0430 C.2   210  GLU210      0.2260
    122  O        -21.3760  -19.9740   19.3120 O.2   210  GLU210     -0.2867
    123  CB       -19.0970  -18.8000   17.2730 C.3   210  GLU210      0.0388
    124  CG       -19.2390  -20.0940   16.5010 C.3   210  GLU210      0.1160
    125  CD       -18.9200  -19.8370   15.0540 C.2   210  GLU210      0.3649
    126  OE1      -17.7290  -19.5560   14.7670 O.co2 210  GLU210     -0.2457
    127  OE2      -19.8630  -19.8350   14.2230 O.co2 210  GLU210     -0.2457
    128  N        -23.2300  -11.9720   11.1710 N.3   219  GLN219     -0.1245
    129  CA       -23.0030  -12.5610    9.8480 C.3   219  GLN219      0.1566
    130  C        -23.2380  -14.0120   10.2200 C.2   219  GLN219      0.2260
    131  O        -22.3790  -14.8780   10.0250 O.2   219  GLN219     -0.2867
    132  CB       -21.5830  -12.3640    9.3710 C.3   219  GLN219      0.0367
    133  CG       -21.3080  -12.8990    7.9660 C.3   219  GLN219      0.0905
    134  CD       -22.1000  -12.1700    6.8900 C.2   219  GLN219      0.2608
    135  OE1      -22.2820  -10.9520    6.9510 O.2   219  GLN219     -0.2717
    136  NE2      -22.5820  -12.9170    5.9030 N.am  219  GLN219     -0.0878
    137  N        -22.9000  -15.2520   12.7960 N.3   221  THR221     -0.1203
    138  CA       -22.2300  -15.1620   14.0660 C.3   221  THR221      0.1994
    139  C        -22.3340  -13.7690   14.6130 C.2   221  THR221      0.2618
    140  O        -22.3860  -12.7960   13.8700 O.2   221  THR221     -0.2717
    141  CB       -20.8150  -15.6420   13.9820 C.3   221  THR221      0.1784
    142  OG1      -20.8420  -16.9950   13.5040 O.3   221  THR221     -0.2211
    143  CG2      -20.1540  -15.6040   15.3680 C.3   221  THR221      0.0376
    144  N        -22.5490  -13.7200   15.9210 N.am  222  VAL222     -0.1965
    145  CA       -22.7400  -12.4940   16.6730 C.3   222  VAL222      0.1727
    146  C        -21.5130  -12.3310   17.5030 C.2   222  VAL222      0.2616
    147  O        -20.9610  -11.2480   17.6050 O.2   222  VAL222     -0.2715
    148  CB       -23.9240  -12.6620   17.7320 C.3   222  VAL222      0.0290
    149  CG1      -23.8990  -11.5190   18.7810 C.3   222  VAL222      0.0023
    150  CG2      -25.3000  -12.7510   17.0540 C.3   222  VAL222      0.0023
    151  N        -21.1680  -13.4210   18.1660 N.am  223  CYS223     -0.1954
    152  CA       -20.0600  -13.4600   19.0910 C.3   223  CYS223      0.1843
    153  C        -19.2660  -14.6780   18.7050 C.2   223  CYS223      0.2625
    154  O        -19.8380  -15.6690   18.2200 O.2   223  CYS223     -0.2714
    155  CB       -20.6210  -13.6020   20.5170 C.3   223  CYS223      0.0997
    156  SG       -19.6160  -12.9740   21.9010 S.3   223  CYS223     -0.0797
    157  N        -17.9490  -14.5710   18.9010 N.am  224  ALA224     -0.1977
    158  CA       -16.9690  -15.6040   18.5790 C.3   224  ALA224      0.1597
    159  C        -15.6460  -15.3710   19.3320 C.2   224  ALA224      0.2287
    160  O        -15.1820  -14.2150   19.5270 O.2   224  ALA224     -0.2864
    161  CB       -16.7250  -15.6250   17.0770 C.3   224  ALA224      0.0319
    162  N        -15.0100  -11.7370   20.8900 N.3   246  ALA246     -0.1245
    163  CA       -15.3420  -10.3900   20.4740 C.3   246  ALA246      0.1562
    164  C        -16.6930  -10.5390   19.8070 C.2   246  ALA246      0.2260
    165  O        -16.9560  -11.5650   19.1730 O.2   246  ALA246     -0.2867
    166  CB       -14.3270   -9.8560   19.5300 C.3   246  ALA246      0.0290
    167  N        -19.8970   -8.6490   17.4370 N.3   248  GLY248     -0.1225
    168  CA       -20.1730   -7.6380   16.4510 C.3   248  GLY248      0.1811
    169  C        -21.3930   -6.8150   16.8130 C.2   248  GLY248      0.2280
    170  O        -22.5440   -7.2130   16.5140 O.2   248  GLY248     -0.2866
    171  N        -22.8130   -4.2940   15.4320 N.3   250  GLU250     -0.1231
    172  CA       -23.8260   -3.9600   14.4270 C.3   250  GLU250      0.1699
    173  C        -24.8230   -5.1130   14.2690 C.2   250  GLU250      0.2592
    174  O        -26.0380   -4.9000   14.1410 O.2   250  GLU250     -0.2718
    175  CB       -23.1810   -3.5770   13.0940 C.3   250  GLU250      0.0402
    176  CG       -22.6300   -2.1630   13.1050 C.3   250  GLU250      0.1161
    177  CD       -21.1230   -2.1100   13.1830 C.2   250  GLU250      0.3649
    178  OE1      -20.5230   -3.0880   13.6490 O.co2 250  GLU250     -0.2457
    179  OE2      -20.5280   -1.0900   12.7690 O.co2 250  GLU250     -0.2457
    180  N        -24.2760   -6.3220   14.3720 N.am  251  ARG251     -0.1980
    181  CA       -25.0110   -7.5610   14.2650 C.3   251  ARG251      0.1597
    182  C        -25.9670   -7.6830   15.4440 C.2   251  ARG251      0.2287
    183  O        -27.1820   -7.9130   15.2630 O.2   251  ARG251     -0.2864
    184  CB       -24.0150   -8.6890   14.3030 C.3   251  ARG251      0.0334
    185  CG       -22.9120   -8.5210   13.2650 C.3   251  ARG251      0.0492
    186  CD       -22.0120   -9.7270   13.2490 C.3   251  ARG251      0.2205
    187  NE       -21.1180   -9.7350   12.1020 N.pl3 251  ARG251     -0.0865
    188  CZ       -20.3620  -10.7710   11.7450 C.cat 251  ARG251      0.5346
    189  NH1      -20.3890  -11.8990   12.4360 N.pl3 251  ARG251      0.1354
    190  NH2      -19.5790  -10.6730   10.6830 N.pl3 251  ARG251      0.1354
@<TRIPOS>BOND
     1    30    31    2
     2    30    29    1
     3    29    28    1
     4    29    32    1
     5    32    33    1
     6    33    34    1
     7    44    43    2
     8    45    46    1
     9    45    42    1
    10    20    19    2
    11   136   134   am
    12    19    18    1
    13     4     3    2
    14    34    35   ar
    15    34    36   ar
    16    46    47    1
    17    43    42    1
    18    43    52   am
    19     1     2    1
    20     3     2    1
    21    42    41    1
    22   134   135    2
    23   134   133    1
    24    37    38    1
    25    54    53    1
    26    54    55    2
    27    53    52    1
    28    53    56    1
    29    41    39   am
    30    60    58   ar
    31    60    62   ar
    32    58    57   ar
    33     2     5    1
    34    47    48    1
    35    18    21    1
    36    18    17    1
    37    21    22    1
    38    56    57    1
    39   133   132    1
    40    57    59   ar
    41    62    63    1
    42    62    61   ar
    43    48    49    2
    44    39    38    1
    45    39    40    2
    46    49    50    1
    47    49    51    1
    48     5     7    1
    49     5     6    1
    50    59    61   ar
    51    22    23    1
    52    23    24    1
    53   132   129    1
    54   129   130    1
    55   129   128    1
    56   131   130    2
    57    26    25    1
    58    24    25    2
    59   190   188    1
    60    98    97    2
    61    25    27    1
    62    71    73   ar
    63    71    69   ar
    64    96    97    1
    65    96    95    1
    66    73    74   ar
    67    64    65    1
    68    97    99   am
    69   188   187    2
    70   188   189    1
    71    68    69    1
    72    68    65    1
    73    87    86    2
    74   187   186    1
    75    69    70   ar
    76    65    66    1
    77    95    86   am
    78    86    85    1
    79    74    72   ar
    80   179   177   ar
    81   137   138    1
    82    99   100    1
    83   106   104    1
    84   175   176    1
    85   175   172    1
    86   176   177    1
    87   177   178   ar
    88   186   185    1
    89   185   184    1
    90   100   101    1
    91   100   103    1
    92    70    72   ar
    93   142   141    1
    94    66    67    2
    95    85    84    1
    96    85    88    1
    97   101   102    2
    98   140   139    2
    99   141   138    1
   100   141   143    1
   101   138   139    1
   102   174   173    2
   103   127   125   ar
   104   181   184    1
   105   181   180    1
   106   181   182    1
   107   173   180   am
   108   173   172    1
   109   172   171    1
   110   104   103    1
   111   104   105    1
   112   139   144   am
   113     8     9    1
   114   126   125   ar
   115    94    92    1
   116   125   124    1
   117    88    89    1
   118   183   182    2
   119    92    91    2
   120    92    93    1
   121   144   145    1
   122     9    12    1
   123     9    10    1
   124    12    13    1
   125    15    14   ar
   126    91    90    1
   127    13    14    1
   128    83    81   am
   129    89    90    1
   130   168   169    1
   131   168   167    1
   132   124   123    1
   133   170   169    2
   134    14    16   ar
   135   145   146    1
   136   145   148    1
   137    80    81    1
   138    80    79    1
   139   116   114   ar
   140   116   117   ar
   141    11    10    2
   142    81    82    2
   143   114   112   ar
   144   150   148    1
   145   161   158    1
   146   123   120    1
   147   146   147    2
   148   146   151   am
   149    75    76    1
   150   148   149    1
   151   118   117    1
   152   117   115   ar
   153   151   152    1
   154    79    76    1
   155   154   153    2
   156   112   111    1
   157   112   113   ar
   158   111   108    1
   159   107   108    1
   160    76    77    1
   161   158   157    1
   162   158   159    1
   163   153   157   am
   164   153   152    1
   165   120   121    1
   166   120   119    1
   167   110   109    2
   168   121   122    2
   169   152   155    1
   170   108   109    1
   171   165   164    2
   172   115   113   ar
   173   159   160    2
   174   166   163    1
   175   164   163    1
   176    77    78    2
   177   163   162    1
   178   155   156    1
