@<TRIPOS>MOLECULE
tmp/1kmnC00.pdb
 156 151 0 0 0
SMALL
GASTEIGER

@<TRIPOS>ATOM
      1  N          8.4760    4.8670  -12.0260 N.3    79  PRO79      -0.2102
      2  CA         7.7750    5.6330  -13.0440 C.3    79  PRO79       0.1504
      3  C          8.8060    6.3740  -13.9130 C.2    79  PRO79       0.2576
      4  O          8.4420    7.0260  -14.9050 O.2    79  PRO79      -0.2718
      5  CB         6.9320    6.5880  -12.2080 C.3    79  PRO79       0.0282
      6  CG         7.8800    6.9240  -11.1020 C.3    79  PRO79       0.0208
      7  CD         8.3820    5.5480  -10.7260 C.3    79  PRO79       0.0893
      8  N         10.0680    6.3700  -13.4780 N.am   80  GLU80      -0.1966
      9  CA        11.1790    6.9930  -14.2240 C.3    80  GLU80       0.1733
     10  C         12.5100    6.4020  -13.8430 C.2    80  GLU80       0.2617
     11  O         12.5450    5.5490  -12.9570 O.2    80  GLU80      -0.2715
     12  CB        11.2150    8.4870  -14.0640 C.3    80  GLU80       0.0429
     13  CG        11.0920    8.8930  -12.6960 C.3    80  GLU80       0.1163
     14  CD        12.3730    9.2750  -12.1380 C.2    80  GLU80       0.3649
     15  OE1       13.0410    8.3920  -11.6100 O.co2  80  GLU80      -0.2457
     16  OE2       12.6930   10.4710  -12.1910 O.co2  80  GLU80      -0.2457
     17  N         13.5990    6.8650  -14.4690 N.am   81  GLY81      -0.1940
     18  CA        14.9260    6.2900  -14.2000 C.3    81  GLY81       0.2014
     19  C         15.9330    7.1140  -13.3990 C.2    81  GLY81       0.2639
     20  O         16.8140    6.5710  -12.7300 O.2    81  GLY81      -0.2714
     21  N         15.7870    8.4340  -13.4650 N.am   82  THR82      -0.1950
     22  CA        16.6270    9.3670  -12.7380 C.3    82  THR82       0.1897
     23  C         16.8460    9.0260  -11.2750 C.2    82  THR82       0.2313
     24  O         17.9840    8.9330  -10.8100 O.2    82  THR82      -0.2863
     25  CB        15.9940   10.7330  -12.7050 C.3    82  THR82       0.1794
     26  OG1       15.6230   11.1250  -14.0230 O.3    82  THR82      -0.2208
     27  CG2       16.9460   11.7220  -12.1580 C.3    82  THR82       0.0378
     28  N         20.3340    4.6590  -19.8730 N.3   104  TYR104     -0.1241
     29  CA        19.6320    3.4250  -19.4530 C.3   104  TYR104      0.1605
     30  C         18.4610    3.2180  -20.3590 C.2   104  TYR104      0.2264
     31  O         17.9020    4.1710  -20.9140 O.2   104  TYR104     -0.2867
     32  CB        19.1110    3.4840  -18.0110 C.3   104  TYR104      0.0534
     33  CG        18.4090    4.7980  -17.6070 C.ar  104  TYR104     -0.0201
     34  CD1       17.1590    5.1550  -18.1040 C.ar  104  TYR104     -0.0009
     35  CD2       19.0640    5.7120  -16.7700 C.ar  104  TYR104     -0.0009
     36  CE1       16.6010    6.3710  -17.7800 C.ar  104  TYR104      0.0417
     37  CE2       18.5070    6.9320  -16.4490 C.ar  104  TYR104      0.0417
     38  CZ        17.2970    7.2520  -16.9420 C.ar  104  TYR104      0.1957
     39  OH        16.8010    8.4650  -16.5380 O.3   104  TYR104     -0.2866
     40  N          3.4560    3.4710  -14.8960 N.3   110  ARG110     -0.1245
     41  CA         2.5850    4.5280  -14.4080 C.3   110  ARG110      0.1563
     42  C          1.1070    4.1630  -14.6130 C.2   110  ARG110      0.2260
     43  O          0.7400    3.4380  -15.5470 O.2   110  ARG110     -0.2867
     44  CB         2.8950    5.8300  -15.0950 C.3   110  ARG110      0.0307
     45  CG         4.2670    6.3260  -14.8020 C.3   110  ARG110      0.0489
     46  CD         4.6320    7.3180  -15.8740 C.3   110  ARG110      0.2205
     47  NE         5.5840    8.3480  -15.4700 N.pl3 110  ARG110     -0.0865
     48  CZ         5.3350    9.6570  -15.5830 C.cat 110  ARG110      0.5346
     49  NH1        4.1390   10.1110  -15.9800 N.pl3 110  ARG110      0.1354
     50  NH2        6.2630   10.5200  -15.2320 N.pl3 110  ARG110      0.1354
     51  N         11.5100    3.5810  -21.9850 N.3   124  GLN124     -0.1245
     52  CA        12.2930    4.8100  -22.0470 C.3   124  GLN124      0.1566
     53  C         13.7530    4.5210  -22.3170 C.2   124  GLN124      0.2260
     54  O         14.2840    3.4500  -21.9720 O.2   124  GLN124     -0.2867
     55  CB        12.2090    5.6090  -20.7090 C.3   124  GLN124      0.0367
     56  CG        11.0110    6.5950  -20.5190 C.3   124  GLN124      0.0905
     57  CD        11.2760    7.6290  -19.4190 C.2   124  GLN124      0.2608
     58  OE1       12.0650    7.3730  -18.5000 O.2   124  GLN124     -0.2717
     59  NE2       10.6510    8.8110  -19.5300 N.am  124  GLN124     -0.0878
     60  N         21.8650   10.3570  -18.3080 N.3   128  GLU128     -0.1245
     61  CA        22.1800   11.2980  -17.2600 C.3   128  GLU128      0.1567
     62  C         23.6960   11.4760  -17.1670 C.2   128  GLU128      0.2260
     63  O         24.4720   10.5170  -17.2770 O.2   128  GLU128     -0.2867
     64  CB        21.7160   10.7600  -15.8980 C.3   128  GLU128      0.0388
     65  CG        20.3790    9.9990  -15.8120 C.3   128  GLU128      0.1160
     66  CD        19.1940   10.8990  -15.7060 C.2   128  GLU128      0.3649
     67  OE1       19.3830   12.1270  -15.5740 O.co2 128  GLU128     -0.2457
     68  OE2       18.0720   10.3690  -15.7790 O.co2 128  GLU128     -0.2457
     69  N          8.6690   21.3410  -15.7890 N.3   222  ARG222     -0.1245
     70  CA         8.3700   19.9460  -15.9830 C.3   222  ARG222      0.1563
     71  C          7.5240   19.3280  -14.9080 C.2   222  ARG222      0.2260
     72  O          7.0930   20.0130  -13.9990 O.2   222  ARG222     -0.2867
     73  CB         9.6400   19.1660  -16.2210 C.3   222  ARG222      0.0307
     74  CG        10.2990   19.5050  -17.5610 C.3   222  ARG222      0.0489
     75  CD         9.6260   18.8120  -18.7370 C.3   222  ARG222      0.2205
     76  NE         9.5740   17.3600  -18.6040 N.pl3 222  ARG222     -0.0865
     77  CZ        10.5420   16.6100  -18.0840 C.cat 222  ARG222      0.5346
     78  NH1       11.6520   17.1440  -17.6460 N.pl3 222  ARG222      0.1354
     79  NH2       10.4150   15.3000  -18.0040 N.pl3 222  ARG222      0.1354
     80  N          8.4450   17.0190  -12.6330 N.3   224  LEU224     -0.1245
     81  CA         9.1910   16.5480  -11.4380 C.3   224  LEU224      0.1561
     82  C          9.8620   17.6690  -10.5710 C.2   224  LEU224      0.2260
     83  O         10.4210   18.6490  -11.0990 O.2   224  LEU224     -0.2867
     84  CB        10.2290   15.4830  -11.8620 C.3   224  LEU224      0.0270
     85  CG        10.1120   14.2950  -12.8750 C.3   224  LEU224      0.0019
     86  CD1        9.8120   12.9860  -12.2470 C.3   224  LEU224      0.0001
     87  CD2        9.1970   14.5470  -14.0400 C.3   224  LEU224      0.0001
     88  N         12.6240   17.7470   -8.9710 N.3   226  TYR226     -0.1227
     89  CA        14.0680   17.7570   -8.8770 C.3   226  TYR226      0.1736
     90  C         14.8310   18.6250   -9.9090 C.2   226  TYR226      0.2595
     91  O         16.0240   18.8620   -9.7210 O.2   226  TYR226     -0.2718
     92  CB        14.6040   16.3420   -8.8160 C.3   226  TYR226      0.0548
     93  CG        14.2980   15.4940  -10.0110 C.ar  226  TYR226     -0.0200
     94  CD1       14.4080   15.9930  -11.3080 C.ar  226  TYR226     -0.0009
     95  CD2       13.9240   14.1640   -9.8360 C.ar  226  TYR226     -0.0009
     96  CE1       14.1600   15.1850  -12.3960 C.ar  226  TYR226      0.0417
     97  CE2       13.6770   13.3390  -10.9160 C.ar  226  TYR226      0.0417
     98  CZ        13.7980   13.8450  -12.2000 C.ar  226  TYR226      0.1957
     99  OH        13.5420   13.0110  -13.2750 O.3   226  TYR226     -0.2866
    100  N         14.1610   19.0860  -10.9710 N.am  227  TYR227     -0.1976
    101  CA        14.7710   19.9510  -11.9960 C.3   227  TYR227      0.1639
    102  C         15.2340   21.2970  -11.4190 C.2   227  TYR227      0.2290
    103  O         14.7270   21.7330  -10.4040 O.2   227  TYR227     -0.2864
    104  CB        13.8320   20.2070  -13.2010 C.3   227  TYR227      0.0560
    105  CG        13.4900   18.9650  -13.9630 C.ar  227  TYR227     -0.0198
    106  CD1       14.4710   18.2140  -14.5700 C.ar  227  TYR227     -0.0009
    107  CD2       12.1830   18.4880  -13.9920 C.ar  227  TYR227     -0.0009
    108  CE1       14.1800   17.0060  -15.1890 C.ar  227  TYR227      0.0417
    109  CE2       11.8690   17.2690  -14.6100 C.ar  227  TYR227      0.0417
    110  CZ        12.8750   16.5250  -15.2150 C.ar  227  TYR227      0.1957
    111  OH        12.5490   15.3310  -15.8850 O.3   227  TYR227     -0.2866
    112  N         12.2730   14.6030  -23.1660 N.3   247  ALA247     -0.1231
    113  CA        12.1970   15.7270  -22.2470 C.3   247  ALA247      0.1694
    114  C         13.1530   15.4840  -21.1100 C.2   247  ALA247      0.2593
    115  O         13.4770   14.3360  -20.7660 O.2   247  ALA247     -0.2718
    116  CB        10.8040   15.8730  -21.7030 C.3   247  ALA247      0.0304
    117  N         13.5970   16.5740  -20.5090 N.am  248  GLY248     -0.1942
    118  CA        14.5280   16.4560  -19.4030 C.3   248  GLY248      0.2014
    119  C         14.9320   17.8500  -18.9480 C.2   248  GLY248      0.2639
    120  O         14.3030   18.8720  -19.3780 O.2   248  GLY248     -0.2714
    121  N         15.9740   17.9140  -18.1070 N.am  249  GLY249     -0.1954
    122  CA        16.4250   19.1940  -17.6250 C.3   249  GLY249      0.1869
    123  C         17.4880   18.9920  -16.5840 C.2   249  GLY249      0.2309
    124  O         17.8930   17.8420  -16.3820 O.2   249  GLY249     -0.2863
    125  N         19.2700   19.4240  -12.4870 N.3   251  TYR251     -0.1241
    126  CA        18.8910   18.7660  -11.2260 C.3   251  TYR251      0.1605
    127  C         20.0590   18.6320  -10.2930 C.2   251  TYR251      0.2264
    128  O         20.3070   17.6020   -9.6500 O.2   251  TYR251     -0.2867
    129  CB        18.2170   17.4010  -11.4220 C.3   251  TYR251      0.0534
    130  CG        18.9910   16.2130  -11.9970 C.ar  251  TYR251     -0.0201
    131  CD1       19.6280   15.2990  -11.1360 C.ar  251  TYR251     -0.0009
    132  CD2       18.9120   15.8740  -13.3650 C.ar  251  TYR251     -0.0009
    133  CE1       20.1510   14.0910  -11.5870 C.ar  251  TYR251      0.0417
    134  CE2       19.4380   14.6380  -13.8330 C.ar  251  TYR251      0.0417
    135  CZ        20.0600   13.7630  -12.9230 C.ar  251  TYR251      0.1957
    136  OH        20.5990   12.5480  -13.3270 O.3   251  TYR251     -0.2866
    137  N         19.8860   15.5610  -17.4330 N.3   267  GLY267     -0.1210
    138  CA        19.5860   14.3840  -18.2040 C.3   267  GLY267      0.1956
    139  C         18.3090   14.5880  -18.9600 C.2   267  GLY267      0.2612
    140  O         17.7350   15.6900  -18.9920 O.2   267  GLY267     -0.2717
    141  N         17.8860   13.5190  -19.6060 N.am  268  PHE268     -0.1962
    142  CA        16.6430   13.5080  -20.3360 C.3   268  PHE268      0.1771
    143  C         16.3040   12.0240  -20.5860 C.2   268  PHE268      0.2619
    144  O         17.1380   11.1320  -20.3520 O.2   268  PHE268     -0.2715
    145  CB        16.7360   14.3280  -21.6340 C.3   268  PHE268      0.0574
    146  CG        17.5220   13.6530  -22.7210 C.ar  268  PHE268     -0.0200
    147  CD1       16.9940   12.5660  -23.4080 C.ar  268  PHE268     -0.0042
    148  CD2       18.8340   13.9960  -22.9500 C.ar  268  PHE268     -0.0042
    149  CE1       17.7720   11.8320  -24.2790 C.ar  268  PHE268     -0.0003
    150  CE2       19.6040   13.2540  -23.8260 C.ar  268  PHE268     -0.0003
    151  CZ        19.0740   12.1760  -24.4820 C.ar  268  PHE268     -0.0000
    152  N         15.0500   11.7690  -20.9390 N.am  269  ALA269     -0.1977
    153  CA        14.5800   10.4280  -21.2080 C.3   269  ALA269      0.1597
    154  C         13.5490   10.5930  -22.3290 C.2   269  ALA269      0.2287
    155  O         12.8930   11.6530  -22.4690 O.2   269  ALA269     -0.2864
    156  CB        14.0000    9.8160  -19.9620 C.3   269  ALA269      0.0319
@<TRIPOS>BOND
     1   151   149   ar
     2   151   150   ar
     3   149   147   ar
     4   150   148   ar
     5   147   146   ar
     6   112   113    1
     7   148   146   ar
     8   146   145    1
     9   155   154    2
    10   154   153    1
    11    53    52    1
    12    53    54    2
    13   113   116    1
    14   113   114    1
    15    52    51    1
    16    52    55    1
    17   145   142    1
    18   153   152    1
    19   153   156    1
    20   114   115    2
    21   114   117   am
    22   152   143   am
    23    31    30    2
    24    55    56    1
    25   143   144    2
    26   143   142    1
    27    56    57    1
    28   117   118    1
    29    30    29    1
    30   142   141    1
    31    28    29    1
    32   141   139   am
    33    59    57   am
    34    29    32    1
    35    57    58    2
    36   118   119    1
    37   120   119    2
    38   140   139    2
    39   139   138    1
    40   119   121   am
    41    75    76    1
    42    75    74    1
    43    76    77    2
    44    60    61    1
    45   138   137    1
    46   121   122    1
    47    34    36   ar
    48    34    33   ar
    49    77    79    1
    50    77    78    1
    51    32    33    1
    52    36    38   ar
    53   122   123    1
    54    33    35   ar
    55    74    73    1
    56    63    62    2
    57    61    62    1
    58    61    64    1
    59    38    39    1
    60    38    37   ar
    61    35    37   ar
    62   123   124    2
    63    73    70    1
    64    70    69    1
    65    70    71    1
    66    49    48    1
    67    64    65    1
    68   111   110    1
    69    46    47    1
    70    46    45    1
    71    65    66    1
    72    68    66   ar
    73    66    67   ar
    74    48    47    2
    75    48    50    1
    76    43    42    2
    77   110   108   ar
    78   110   109   ar
    79   108   106   ar
    80    44    45    1
    81    44    41    1
    82    71    72    2
    83     4     3    2
    84    40    41    1
    85    42    41    1
    86   109   107   ar
    87   106   105   ar
    88    17    18    1
    89    17    10   am
    90     9    12    1
    91     9    10    1
    92     9     8    1
    93    18    19    1
    94    12    13    1
    95    87    85    1
    96    26    25    1
    97   107   105   ar
    98   105   104    1
    99     3     8   am
   100     3     2    1
   101    10    11    2
   102   134   132   ar
   103   134   135   ar
   104    21    19   am
   105    21    22    1
   106    19    20    2
   107   132   130   ar
   108   136   135    1
   109    99    98    1
   110   104   101    1
   111     2     5    1
   112     2     1    1
   113   135   133   ar
   114    85    86    1
   115    85    84    1
   116    22    25    1
   117    22    23    1
   118    25    27    1
   119    13    14    1
   120    80    81    1
   121   125   126    1
   122    96    98   ar
   123    96    94   ar
   124     5     6    1
   125    98    97   ar
   126    16    14   ar
   127    14    15   ar
   128     1     7    1
   129   130   129    1
   130   130   131   ar
   131   101   102    1
   132   101   100    1
   133    84    81    1
   134   133   131   ar
   135    81    82    1
   136   129   126    1
   137   102   103    2
   138    94    93   ar
   139    23    24    2
   140   126   127    1
   141     6     7    1
   142    83    82    2
   143   100    90   am
   144    97    95   ar
   145   127   128    2
   146    93    95   ar
   147    93    92    1
   148    90    91    2
   149    90    89    1
   150    88    89    1
   151    89    92    1
