@<TRIPOS>MOLECULE
tmp/1kmoA13.pdb
 88 86 0 0 0
SMALL
GASTEIGER

@<TRIPOS>ATOM
      1  N         44.2690   12.6090   14.0180 N.3   458  ARG458     -0.1245
      2  CA        45.0400   12.9800   15.2050 C.3   458  ARG458      0.1563
      3  C         44.0850   13.9490   15.8930 C.2   458  ARG458      0.2260
      4  O         43.6610   14.9540   15.3040 O.2   458  ARG458     -0.2867
      5  CB        46.3580   13.6920   14.8310 C.3   458  ARG458      0.0307
      6  CG        47.2610   14.0460   16.0340 C.3   458  ARG458      0.0489
      7  CD        48.3020   12.9450   16.3080 C.3   458  ARG458      0.2205
      8  NE        48.2660   12.5610   17.7030 N.pl3 458  ARG458     -0.0865
      9  CZ        48.5240   11.3430   18.1400 C.cat 458  ARG458      0.5346
     10  NH1       48.8500   10.3790   17.2860 N.pl3 458  ARG458      0.1354
     11  NH2       48.4160   11.0850   19.4360 N.pl3 458  ARG458      0.1354
     12  N         42.9460   16.1900   19.5570 N.3   460  TRP460     -0.1227
     13  CA        43.4140   16.9250   20.7290 C.3   460  TRP460      0.1737
     14  C         42.1890   17.3960   21.5260 C.2   460  TRP460      0.2595
     15  O         41.2080   17.8570   20.9450 O.2   460  TRP460     -0.2718
     16  CB        44.2360   18.1650   20.3330 C.3   460  TRP460      0.0564
     17  CG        45.3510   17.9430   19.3160 C.ar  460  TRP460      0.0003
     18  CD1       45.2210   17.8700   17.9530 C.ar  460  TRP460      0.0946
     19  CD2       46.7540   17.7720   19.5920 C.ar  460  TRP460      0.0152
     20  NE1       46.4490   17.6650   17.3700 N.ar  460  TRP460     -0.2442
     21  CE2       47.4060   17.5990   18.3510 C.ar  460  TRP460      0.0810
     22  CE3       47.5170   17.7500   20.7650 C.ar  460  TRP460      0.0012
     23  CZ2       48.7920   17.3970   18.2480 C.ar  460  TRP460      0.0191
     24  CZ3       48.8950   17.5490   20.6670 C.ar  460  TRP460      0.0001
     25  CH2       49.5140   17.3770   19.4130 C.ar  460  TRP460      0.0015
     26  N         42.2390   17.2680   22.8480 N.am  461  GLU461     -0.1965
     27  CA        41.1490   17.7440   23.6840 C.3   461  GLU461      0.1733
     28  C         41.7570   18.4630   24.8840 C.2   461  GLU461      0.2616
     29  O         42.8880   18.1820   25.2890 O.2   461  GLU461     -0.2715
     30  CB        40.2620   16.5880   24.2120 C.3   461  GLU461      0.0429
     31  CG        39.8040   15.6150   23.1620 C.3   461  GLU461      0.1163
     32  CD        38.7260   14.6660   23.6390 C.2   461  GLU461      0.3649
     33  OE1       38.8610   14.0070   24.6920 O.co2 461  GLU461     -0.2457
     34  OE2       37.7200   14.5590   22.9150 O.co2 461  GLU461     -0.2457
     35  N         40.9740   19.3710   25.4440 N.am  462  LEU462     -0.1977
     36  CA        41.3100   20.1380   26.6390 C.3   462  LEU462      0.1596
     37  C         39.9500   20.3320   27.2930 C.2   462  LEU462      0.2287
     38  O         38.9840   20.6710   26.6090 O.2   462  LEU462     -0.2864
     39  CB        41.8700   21.5080   26.2820 C.3   462  LEU462      0.0297
     40  CG        43.3360   21.5440   25.8920 C.3   462  LEU462      0.0022
     41  CD1       43.7570   22.9670   25.5100 C.3   462  LEU462      0.0001
     42  CD2       44.1490   21.0420   27.0960 C.3   462  LEU462      0.0001
     43  N         37.2200   21.4250   24.9480 N.3   477  LEU477     -0.1231
     44  CA        37.4540   21.8310   23.5710 C.3   477  LEU477      0.1693
     45  C         38.0090   20.5870   22.8910 C.2   477  LEU477      0.2592
     46  O         38.5190   19.6770   23.5670 O.2   477  LEU477     -0.2718
     47  CB        38.4960   22.9390   23.4830 C.3   477  LEU477      0.0284
     48  CG        38.2250   24.2570   24.2150 C.3   477  LEU477      0.0019
     49  CD1       39.4010   25.2210   23.9600 C.3   477  LEU477      0.0001
     50  CD2       36.9400   24.8810   23.7090 C.3   477  LEU477      0.0001
     51  N         37.8810   20.5410   21.5700 N.am  478  PHE478     -0.1962
     52  CA        38.4010   19.4210   20.8020 C.3   478  PHE478      0.1771
     53  C         38.8550   19.8740   19.4260 C.2   478  PHE478      0.2619
     54  O         38.4110   20.8920   18.8980 O.2   478  PHE478     -0.2715
     55  CB        37.3450   18.3310   20.6570 C.3   478  PHE478      0.0574
     56  CG        36.1820   18.7310   19.7950 C.ar  478  PHE478     -0.0200
     57  CD1       36.2740   18.6840   18.4020 C.ar  478  PHE478     -0.0042
     58  CD2       34.9890   19.1570   20.3790 C.ar  478  PHE478     -0.0042
     59  CE1       35.1800   19.0660   17.5930 C.ar  478  PHE478     -0.0003
     60  CE2       33.8830   19.5460   19.5850 C.ar  478  PHE478     -0.0003
     61  CZ        33.9810   19.4960   18.1940 C.ar  478  PHE478     -0.0000
     62  N         39.7690   19.1080   18.8560 N.am  479  LEU479     -0.1977
     63  CA        40.2640   19.3780   17.5270 C.3   479  LEU479      0.1596
     64  C         40.5210   18.0120   16.9130 C.2   479  LEU479      0.2287
     65  O         41.1860   17.1810   17.5160 O.2   479  LEU479     -0.2864
     66  CB        41.5720   20.1720   17.5770 C.3   479  LEU479      0.0297
     67  CG        42.4090   20.1570   16.2820 C.3   479  LEU479      0.0022
     68  CD1       41.6230   20.7660   15.1040 C.3   479  LEU479      0.0001
     69  CD2       43.7080   20.9220   16.5240 C.3   479  LEU479      0.0001
     70  N         41.7710   16.2640   13.2000 N.3   481  ASN481     -0.1240
     71  CA        42.2310   16.3980   11.8130 C.3   481  ASN481      0.1653
     72  C         42.1430   14.9660   11.2490 C.2   481  ASN481      0.2266
     73  O         42.8490   14.0610   11.6930 O.2   481  ASN481     -0.2867
     74  CB        43.6570   16.9360   11.7590 C.3   481  ASN481      0.1155
     75  CG        43.6890   18.4490   11.8200 C.2   481  ASN481      0.2627
     76  OD1       43.0930   19.1170   10.9810 O.2   481  ASN481     -0.2716
     77  ND2       44.3740   18.9940   12.8190 N.am  481  ASN481     -0.0877
     78  N         36.3930   21.0550   14.9180 N.3   504  THR504     -0.1203
     79  CA        36.7860   21.7830   16.1060 C.3   504  THR504      0.1994
     80  C         35.5280   22.2760   16.8160 C.2   504  THR504      0.2618
     81  O         34.4590   22.4270   16.2040 O.2   504  THR504     -0.2717
     82  CB        37.6910   23.0110   15.7750 C.3   504  THR504      0.1784
     83  OG1       37.0230   23.8690   14.8580 O.3   504  THR504     -0.2211
     84  CG2       38.9940   22.5890   15.1440 C.3   504  THR504      0.0376
     85  N         35.6410   22.5160   18.1150 N.am  505  GLY505     -0.1956
     86  CA        34.4850   23.0090   18.8130 C.3   505  GLY505      0.1869
     87  C         34.5760   22.9530   20.3050 C.2   505  GLY505      0.2309
     88  O         35.6470   22.7260   20.8840 O.2   505  GLY505     -0.2863
@<TRIPOS>BOND
     1    76    75    2
     2    72    73    2
     3    72    71    1
     4    74    71    1
     5    74    75    1
     6    71    70    1
     7    75    77   am
     8     1     2    1
     9     5     2    1
    10     5     6    1
    11    83    82    1
    12    78    79    1
    13    68    67    1
    14    84    82    1
    15     2     3    1
    16     4     3    2
    17    82    79    1
    18     6     7    1
    19    79    80    1
    20    81    80    2
    21    67    69    1
    22    67    66    1
    23     7     8    1
    24    80    85   am
    25    64    65    2
    26    64    63    1
    27    10     9    1
    28    20    18   ar
    29    20    21   ar
    30    63    66    1
    31    63    62    1
    32    59    61   ar
    33    59    57   ar
    34     8     9    2
    35    18    17   ar
    36    85    86    1
    37     9    11    1
    38    61    60   ar
    39    23    21   ar
    40    23    25   ar
    41    21    19   ar
    42    57    56   ar
    43    86    87    1
    44    62    53   am
    45    54    53    2
    46    17    19   ar
    47    17    16    1
    48    25    24   ar
    49    53    52    1
    50    12    13    1
    51    60    58   ar
    52    19    22   ar
    53    56    58   ar
    54    56    55    1
    55    87    88    2
    56    16    13    1
    57    55    52    1
    58    24    22   ar
    59    13    14    1
    60    52    51    1
    61    15    14    2
    62    14    26   am
    63    51    45   am
    64    26    27    1
    65    45    46    2
    66    45    44    1
    67    34    32   ar
    68    31    32    1
    69    31    30    1
    70    47    44    1
    71    47    48    1
    72    44    43    1
    73    32    33   ar
    74    27    30    1
    75    27    28    1
    76    50    48    1
    77    49    48    1
    78    28    29    2
    79    28    35   am
    80    35    36    1
    81    41    40    1
    82    40    39    1
    83    40    42    1
    84    39    36    1
    85    38    37    2
    86    36    37    1
