@<TRIPOS>MOLECULE
tmp/1kmoA04.pdb
 87 87 0 0 0
SMALL
GASTEIGER

@<TRIPOS>ATOM
      1  N         11.1140   18.6390   37.9760 N.3   562  TYR562     -0.1241
      2  CA        10.5670   19.0050   39.2870 C.3   562  TYR562      0.1605
      3  C          9.9980   17.7370   39.9160 C.2   562  TYR562      0.2264
      4  O          9.1260   17.0880   39.3380 O.2   562  TYR562     -0.2867
      5  CB         9.5020   20.0950   39.1120 C.3   562  TYR562      0.0534
      6  CG         8.7080   20.4180   40.3510 C.ar  562  TYR562     -0.0201
      7  CD1        9.3350   20.5590   41.6000 C.ar  562  TYR562     -0.0009
      8  CD2        7.3320   20.6350   40.2730 C.ar  562  TYR562     -0.0009
      9  CE1        8.6110   20.9110   42.7220 C.ar  562  TYR562      0.0417
     10  CE2        6.5910   20.9940   41.4090 C.ar  562  TYR562      0.0417
     11  CZ         7.2420   21.1340   42.6240 C.ar  562  TYR562      0.1957
     12  OH         6.5340   21.5410   43.7360 O.3   562  TYR562     -0.2866
     13  N          8.3080   16.8520   43.2770 N.3   564  PRO564     -0.2102
     14  CA         7.7580   16.9700   44.6250 C.3   564  PRO564      0.1504
     15  C          7.2170   15.5920   44.9930 C.2   564  PRO564      0.2576
     16  O          6.5440   14.9570   44.1810 O.2   564  PRO564     -0.2718
     17  CB         6.6500   17.9950   44.4540 C.3   564  PRO564      0.0282
     18  CG         6.1310   17.6670   43.0910 C.3   564  PRO564      0.0208
     19  CD         7.4150   17.4670   42.2830 C.3   564  PRO564      0.0893
     20  N          7.5290   15.1200   46.1910 N.am  565  GLY565     -0.1957
     21  CA         7.0400   13.8220   46.6350 C.3   565  GLY565      0.1869
     22  C          7.2410   12.6610   45.6720 C.2   565  GLY565      0.2309
     23  O          8.3840   12.2980   45.3640 O.2   565  GLY565     -0.2863
     24  N          5.8460   12.6230   42.5760 N.3   567  TRP567     -0.1241
     25  CA         5.6390   13.1130   41.2230 C.3   567  TRP567      0.1605
     26  C          6.9380   13.4660   40.5300 C.2   567  TRP567      0.2264
     27  O          7.9480   13.7590   41.1690 O.2   567  TRP567     -0.2867
     28  CB         4.8100   14.3850   41.2220 C.3   567  TRP567      0.0550
     29  CG         3.4330   14.2690   41.7620 C.ar  567  TRP567      0.0003
     30  CD1        3.0480   14.3710   43.0730 C.ar  567  TRP567      0.0946
     31  CD2        2.2400   14.0450   41.0030 C.ar  567  TRP567      0.0152
     32  NE1        1.6850   14.2310   43.1690 N.ar  567  TRP567     -0.2442
     33  CE2        1.1610   14.0290   41.9190 C.ar  567  TRP567      0.0810
     34  CE3        1.9750   13.8640   39.6340 C.ar  567  TRP567      0.0012
     35  CZ2       -0.1720   13.8280   41.5160 C.ar  567  TRP567      0.0191
     36  CZ3        0.6430   13.6700   39.2280 C.ar  567  TRP567      0.0001
     37  CH2       -0.4110   13.6570   40.1760 C.ar  567  TRP567      0.0015
     38  N          7.8180   15.8990   37.1160 N.3   569  PHE569     -0.1227
     39  CA         7.3350   16.7860   36.0770 C.3   569  PHE569      0.1736
     40  C          8.5950   17.1350   35.2930 C.2   569  PHE569      0.2595
     41  O          9.5730   17.6310   35.8580 O.2   569  PHE569     -0.2718
     42  CB         6.7270   18.0620   36.6850 C.3   569  PHE569      0.0547
     43  CG         5.4940   17.8110   37.4880 C.ar  569  PHE569     -0.0202
     44  CD1        4.2760   17.5860   36.8590 C.ar  569  PHE569     -0.0042
     45  CD2        5.5610   17.7300   38.8780 C.ar  569  PHE569     -0.0042
     46  CE1        3.1470   17.2790   37.6000 C.ar  569  PHE569     -0.0003
     47  CE2        4.4230   17.4160   39.6390 C.ar  569  PHE569     -0.0003
     48  CZ         3.2240   17.1930   39.0090 C.ar  569  PHE569     -0.0000
     49  N          8.5800   16.8540   34.0000 N.am  570  ASN570     -0.1960
     50  CA         9.7240   17.1630   33.1620 C.3   570  ASN570      0.1819
     51  C          9.3180   18.1410   32.0840 C.2   570  ASN570      0.2621
     52  O          8.1950   18.0800   31.5700 O.2   570  ASN570     -0.2715
     53  CB        10.2670   15.9020   32.4810 C.3   570  ASN570      0.1195
     54  CG        10.5660   14.7990   33.4610 C.2   570  ASN570      0.2630
     55  OD1        9.9230   13.7420   33.4520 O.2   570  ASN570     -0.2716
     56  ND2       11.5430   15.0390   34.3260 N.am  570  ASN570     -0.0877
     57  N         10.2340   19.0570   31.7710 N.am  571  LEU571     -0.1977
     58  CA        10.0600   20.0270   30.6940 C.3   571  LEU571      0.1596
     59  C         11.4060   19.9410   30.0030 C.2   571  LEU571      0.2287
     60  O         12.4510   19.9250   30.6790 O.2   571  LEU571     -0.2864
     61  CB         9.8320   21.4440   31.2280 C.3   571  LEU571      0.0297
     62  CG         9.7050   22.5540   30.1640 C.3   571  LEU571      0.0022
     63  CD1        8.4050   22.3850   29.3280 C.3   571  LEU571      0.0001
     64  CD2        9.7070   23.9150   30.8660 C.3   571  LEU571      0.0001
     65  N          7.2390   17.6700   27.3210 N.3   606  ALA606     -0.1231
     66  CA         6.9440   17.6790   28.7450 C.3   606  ALA606      0.1694
     67  C          6.3810   16.3240   29.1100 C.2   606  ALA606      0.2592
     68  O          5.9750   15.5490   28.2290 O.2   606  ALA606     -0.2718
     69  CB         5.9460   18.7930   29.0800 C.3   606  ALA606      0.0304
     70  N          6.3730   16.0260   30.4060 N.am  607  ARG607     -0.1966
     71  CA         5.8980   14.7320   30.8740 C.3   607  ARG607      0.1729
     72  C          5.5230   14.8410   32.3460 C.2   607  ARG607      0.2616
     73  O          6.1200   15.6170   33.0920 O.2   607  ARG607     -0.2715
     74  CB         7.0230   13.6920   30.6920 C.3   607  ARG607      0.0348
     75  CG         6.6580   12.2440   31.0650 C.3   607  ARG607      0.0492
     76  CD         7.8850   11.3450   31.0410 C.3   607  ARG607      0.2205
     77  NE         8.7410   11.5950   32.1890 N.pl3 607  ARG607     -0.0865
     78  CZ         9.0840   10.6720   33.0790 C.cat 607  ARG607      0.5346
     79  NH1        8.6550    9.4210   32.9430 N.pl3 607  ARG607      0.1354
     80  NH2        9.8160   11.0110   34.1420 N.pl3 607  ARG607      0.1354
     81  N          4.5290   14.0680   32.7580 N.am  608  VAL608     -0.1977
     82  CA         4.0980   14.0520   34.1470 C.3   608  VAL608      0.1596
     83  C          4.1170   12.5860   34.5210 C.2   608  VAL608      0.2287
     84  O          3.5870   11.7450   33.7880 O.2   608  VAL608     -0.2864
     85  CB         2.6570   14.6300   34.3500 C.3   608  VAL608      0.0276
     86  CG1        1.6940   14.0550   33.3350 C.3   608  VAL608      0.0022
     87  CG2        2.1650   14.2930   35.7540 C.3   608  VAL608      0.0022
@<TRIPOS>BOND
     1    65    66    1
     2    68    67    2
     3    66    69    1
     4    66    67    1
     5    67    70   am
     6    63    62    1
     7    59    60    2
     8    59    58    1
     9    62    64    1
    10    62    61    1
    11    70    71    1
    12    74    71    1
    13    74    75    1
    14    58    61    1
    15    58    57    1
    16    71    72    1
    17    76    75    1
    18    76    77    1
    19    52    51    2
    20    57    51   am
    21    51    50    1
    22    77    78    2
    23    72    81   am
    24    72    73    2
    25    53    50    1
    26    53    54    1
    27    81    82    1
    28    79    78    1
    29    78    80    1
    30    50    49    1
    31    86    85    1
    32    55    54    2
    33    54    56   am
    34    84    83    2
    35    49    40   am
    36    82    85    1
    37    82    83    1
    38    85    87    1
    39    40    41    2
    40    40    39    1
    41    39    42    1
    42    39    38    1
    43    42    43    1
    44    44    43   ar
    45    44    46   ar
    46    43    45   ar
    47    46    48   ar
    48     1     2    1
    49    45    47   ar
    50    48    47   ar
    51     5     2    1
    52     5     6    1
    53    36    34   ar
    54    36    37   ar
    55     2     3    1
    56     4     3    2
    57    34    31   ar
    58    37    35   ar
    59     8     6   ar
    60     8    10   ar
    61     6     7   ar
    62    26    27    2
    63    26    25    1
    64    31    29   ar
    65    31    33   ar
    66    28    25    1
    67    28    29    1
    68    25    24    1
    69    10    11   ar
    70    35    33   ar
    71     7     9   ar
    72    29    30   ar
    73    33    32   ar
    74    19    18    1
    75    19    13    1
    76    11     9   ar
    77    11    12    1
    78    30    32   ar
    79    18    17    1
    80    13    14    1
    81    16    15    2
    82    17    14    1
    83    14    15    1
    84    15    20   am
    85    23    22    2
    86    22    21    1
    87    20    21    1
