@<TRIPOS>MOLECULE
tmp/1kmoA01.pdb
 91 88 0 0 0
SMALL
GASTEIGER

@<TRIPOS>ATOM
      1  N         51.6070   -1.2550   40.2580 N.3   315  PHE315     -0.1241
      2  CA        52.7350   -1.3490   41.1740 C.3   315  PHE315      0.1605
      3  C         53.2730    0.0570   41.4260 C.2   315  PHE315      0.2264
      4  O         52.8970    1.0040   40.7280 O.2   315  PHE315     -0.2867
      5  CB        53.8200   -2.2710   40.5840 C.3   315  PHE315      0.0534
      6  CG        54.2540   -1.8940   39.1940 C.ar  315  PHE315     -0.0203
      7  CD1       55.1270   -0.8340   38.9840 C.ar  315  PHE315     -0.0042
      8  CD2       53.7430   -2.5740   38.0870 C.ar  315  PHE315     -0.0042
      9  CE1       55.4900   -0.4490   37.6950 C.ar  315  PHE315     -0.0003
     10  CE2       54.0940   -2.2020   36.7870 C.ar  315  PHE315     -0.0003
     11  CZ        54.9730   -1.1290   36.5870 C.ar  315  PHE315     -0.0000
     12  N         56.5500    2.6710   41.7660 N.3   317  ILE317     -0.1245
     13  CA        57.9060    2.8910   41.3270 C.3   317  ILE317      0.1561
     14  C         58.2010    4.2020   42.0290 C.2   317  ILE317      0.2260
     15  O         57.9400    5.2910   41.5010 O.2   317  ILE317     -0.2867
     16  CB        58.0150    3.0740   39.8250 C.3   317  ILE317      0.0252
     17  CG1       57.7470    1.7420   39.1190 C.3   317  ILE317      0.0019
     18  CG2       59.3990    3.5950   39.4770 C.3   317  ILE317      0.0019
     19  CD1       57.7800    1.8500   37.6140 C.3   317  ILE317      0.0001
     20  N         51.9400    3.0860   38.9990 N.3   322  HIS322     -0.1241
     21  CA        51.8870    2.7840   37.5820 C.3   322  HIS322      0.1621
     22  C         50.9240    1.6390   37.3580 C.2   322  HIS322      0.2264
     23  O         51.1230    0.5440   37.9230 O.2   322  HIS322     -0.2867
     24  CB        53.2690    2.3540   37.0550 C.3   322  HIS322      0.0745
     25  CG        54.2550    3.4730   36.9070 C.ar  322  HIS322      0.0817
     26  ND1       54.8270    3.8030   35.6960 N.ar  322  HIS322     -0.2268
     27  CD2       54.7670    4.3440   37.8140 C.ar  322  HIS322      0.1154
     28  CE1       55.6420    4.8330   35.8610 C.ar  322  HIS322      0.1986
     29  NE2       55.6200    5.1790   37.1370 N.ar  322  HIS322     -0.2212
     30  N         49.8590   -0.6250   34.5300 N.3   324  VAL324     -0.1245
     31  CA        50.1780   -1.0070   33.1660 C.3   324  VAL324      0.1561
     32  C         49.0830   -1.8690   32.5900 C.2   324  VAL324      0.2260
     33  O         48.6650   -2.8420   33.2040 O.2   324  VAL324     -0.2867
     34  CB        51.4980   -1.7980   33.0880 C.3   324  VAL324      0.0252
     35  CG1       51.7610   -2.2100   31.6460 C.3   324  VAL324      0.0019
     36  CG2       52.6540   -0.9460   33.6520 C.3   324  VAL324      0.0019
     37  N         49.1350   -1.0090   24.5530 N.3   371  LEU371     -0.1231
     38  CA        49.8800   -0.9120   25.8050 C.3   371  LEU371      0.1693
     39  C         49.7510    0.4870   26.3560 C.2   371  LEU371      0.2592
     40  O         49.9630    1.4490   25.6490 O.2   371  LEU371     -0.2718
     41  CB        51.3660   -1.2080   25.5480 C.3   371  LEU371      0.0284
     42  CG        52.3590   -0.9750   26.6820 C.3   371  LEU371      0.0019
     43  CD1       52.1860   -2.0200   27.7950 C.3   371  LEU371      0.0001
     44  CD2       53.7500   -1.0640   26.1120 C.3   371  LEU371      0.0001
     45  N         49.3730    0.6000   27.6160 N.am  372  ASP372     -0.1960
     46  CA        49.3030    1.9060   28.2430 C.3   372  ASP372      0.1840
     47  C         49.7230    1.7560   29.6990 C.2   372  ASP372      0.2622
     48  O         49.7820    0.6490   30.2380 O.2   372  ASP372     -0.2715
     49  CB        47.9030    2.5630   28.1230 C.3   372  ASP372      0.1450
     50  CG        46.7670    1.6860   28.6230 C.2   372  ASP372      0.3671
     51  OD1       46.9590    0.9200   29.5930 O.co2 372  ASP372     -0.2456
     52  OD2       45.6440    1.7860   28.0500 O.co2 372  ASP372     -0.2456
     53  N         50.0390    2.8920   30.3090 N.am  373  ASP373     -0.1971
     54  CA        50.4770    2.9660   31.6970 C.3   373  ASP373      0.1709
     55  C         49.8760    4.2330   32.3030 C.2   373  ASP373      0.2293
     56  O         50.2360    5.3550   31.9210 O.2   373  ASP373     -0.2864
     57  CB        52.0120    3.0460   31.7330 C.3   373  ASP373      0.1436
     58  CG        52.5630    3.0900   33.1430 C.2   373  ASP373      0.3671
     59  OD1       51.7580    3.0020   34.1020 O.co2 373  ASP373     -0.2456
     60  OD2       53.8000    3.2000   33.2840 O.co2 373  ASP373     -0.2456
     61  N         50.3610    7.5240   29.0080 N.3   384  PRO384     -0.2102
     62  CA        50.9180    7.4320   27.6570 C.3   384  PRO384      0.1504
     63  C         50.3310    6.1040   27.1760 C.2   384  PRO384      0.2576
     64  O         50.0870    5.2030   27.9890 O.2   384  PRO384     -0.2718
     65  CB        52.4260    7.3300   27.8990 C.3   384  PRO384      0.0282
     66  CG        52.4970    6.6580   29.2370 C.3   384  PRO384      0.0208
     67  CD        51.4160    7.3680   30.0280 C.3   384  PRO384      0.0893
     68  N         50.0810    5.9860   25.8780 N.am  385  GLY385     -0.1943
     69  CA        49.5090    4.7610   25.3580 C.3   385  GLY385      0.2014
     70  C         49.8440    4.5660   23.8930 C.2   385  GLY385      0.2638
     71  O         50.2160    5.5040   23.1820 O.2   385  GLY385     -0.2714
     72  N         49.6950    3.3350   23.4280 N.am  386  MET386     -0.1976
     73  CA        50.0190    3.0290   22.0440 C.3   386  MET386      0.1605
     74  C         49.1860    1.8680   21.5350 C.2   386  MET386      0.2287
     75  O         49.1180    0.8100   22.1680 O.2   386  MET386     -0.2864
     76  CB        51.5210    2.6840   21.9470 C.3   386  MET386      0.0413
     77  CG        51.9980    2.1310   20.6090 C.3   386  MET386      0.0598
     78  SD        51.8900    3.4100   19.3700 S.3   386  MET386     -0.1393
     79  CE        52.5450    2.5770   17.8980 C.3   386  MET386      0.0692
     80  N         49.8370    6.3590   18.5590 N.3   413  PRO413     -0.2102
     81  CA        50.4140    6.8020   19.8220 C.3   413  PRO413      0.1504
     82  C         49.5260    7.8590   20.4830 C.2   413  PRO413      0.2575
     83  O         48.9610    8.7170   19.8050 O.2   413  PRO413     -0.2718
     84  CB        51.7800    7.3330   19.4070 C.3   413  PRO413      0.0282
     85  CG        51.5490    7.8930   18.0350 C.3   413  PRO413      0.0208
     86  CD        50.5930    6.8890   17.3990 C.3   413  PRO413      0.0893
     87  N         49.4110    7.7890   21.8050 N.am  414  ALA414     -0.1980
     88  CA        48.5740    8.7330   22.5400 C.3   414  ALA414      0.1597
     89  C         49.1410    9.0990   23.9050 C.2   414  ALA414      0.2287
     90  O         49.9700    8.3740   24.4780 O.2   414  ALA414     -0.2864
     91  CB        47.1570    8.1470   22.7390 C.3   414  ALA414      0.0319
@<TRIPOS>BOND
     1    86    85    1
     2    86    80    1
     3    79    78    1
     4    85    84    1
     5    80    81    1
     6    78    77    1
     7    84    81    1
     8    83    82    2
     9    81    82    1
    10    82    87   am
    11    77    76    1
    12    74    73    1
    13    74    75    2
    14    87    88    1
    15    76    73    1
    16    73    72    1
    17    88    91    1
    18    88    89    1
    19    71    70    2
    20    72    70   am
    21    70    69    1
    22    89    90    2
    23    37    38    1
    24    69    68    1
    25    41    38    1
    26    41    42    1
    27    40    39    2
    28    38    39    1
    29    68    63   am
    30    44    42    1
    31    39    45   am
    32    42    43    1
    33    63    62    1
    34    63    64    2
    35    45    46    1
    36    62    65    1
    37    62    61    1
    38    65    66    1
    39    52    50   ar
    40    49    46    1
    41    49    50    1
    42    46    47    1
    43    50    51   ar
    44    61    67    1
    45    66    67    1
    46    47    48    2
    47    47    53   am
    48    53    54    1
    49    35    34    1
    50    54    57    1
    51    54    55    1
    52    57    58    1
    53    56    55    2
    54    32    31    1
    55    32    33    2
    56    34    31    1
    57    34    36    1
    58    58    60   ar
    59    58    59   ar
    60    31    30    1
    61    26    28   ar
    62    26    25   ar
    63    28    29   ar
    64    11    10   ar
    65    11     9   ar
    66    10     8   ar
    67    25    24    1
    68    25    27   ar
    69    24    21    1
    70    29    27   ar
    71    22    21    1
    72    22    23    2
    73    21    20    1
    74    19    17    1
    75     9     7   ar
    76     8     6   ar
    77     7     6   ar
    78    17    16    1
    79     6     5    1
    80    18    16    1
    81    16    13    1
    82     1     2    1
    83     5     2    1
    84     4     3    2
    85     2     3    1
    86    13    12    1
    87    13    14    1
    88    15    14    2
