@<TRIPOS>MOLECULE
tmp/1kmoA02.pdb
 81 79 0 0 0
SMALL
GASTEIGER

@<TRIPOS>ATOM
      1  N         32.2750  -18.4260   41.1960 N.3   211  PRO211     -0.2116
      2  CA        32.3490  -19.4470   42.2480 C.3   211  PRO211      0.1372
      3  C         33.1360  -18.9940   43.4760 C.2   211  PRO211      0.2244
      4  O         32.9640  -19.5290   44.5720 O.2   211  PRO211     -0.2868
      5  CB        32.9890  -20.6340   41.5330 C.3   211  PRO211      0.0268
      6  CG        33.8650  -19.9750   40.5050 C.3   211  PRO211      0.0207
      7  CD        32.9770  -18.8770   39.9810 C.3   211  PRO211      0.0892
      8  N         37.9700  -16.1930   40.3980 N.3   215  HIS215     -0.1241
      9  CA        37.5470  -16.5270   39.0520 C.3   215  HIS215      0.1621
     10  C         36.1460  -16.0320   38.7720 C.2   215  HIS215      0.2264
     11  O         35.2360  -16.1670   39.6050 O.2   215  HIS215     -0.2867
     12  CB        37.6050  -18.0390   38.8500 C.3   215  HIS215      0.0745
     13  CG        38.8950  -18.6510   39.3040 C.ar  215  HIS215      0.0817
     14  ND1       40.0880  -18.4450   38.6460 N.ar  215  HIS215     -0.2268
     15  CD2       39.1870  -19.4180   40.3840 C.ar  215  HIS215      0.1154
     16  CE1       41.0620  -19.0550   39.2990 C.ar  215  HIS215      0.1986
     17  NE2       40.5420  -19.6540   40.3570 N.ar  215  HIS215     -0.2212
     18  N         33.3140  -15.8470   35.4240 N.3   217  PHE217     -0.1241
     19  CA        32.9520  -16.1550   34.0500 C.3   217  PHE217      0.1605
     20  C         31.7330  -15.3160   33.6950 C.2   217  PHE217      0.2264
     21  O         30.8640  -15.0500   34.5500 O.2   217  PHE217     -0.2867
     22  CB        32.5880  -17.6420   33.8760 C.3   217  PHE217      0.0534
     23  CG        33.7300  -18.5830   34.1230 C.ar  217  PHE217     -0.0203
     24  CD1       34.1100  -18.9170   35.4250 C.ar  217  PHE217     -0.0042
     25  CD2       34.4510  -19.1140   33.0560 C.ar  217  PHE217     -0.0042
     26  CE1       35.2010  -19.7680   35.6610 C.ar  217  PHE217     -0.0003
     27  CE2       35.5460  -19.9670   33.2790 C.ar  217  PHE217     -0.0003
     28  CZ        35.9210  -20.2940   34.5910 C.ar  217  PHE217     -0.0000
     29  N         31.6880  -15.1050   25.4610 N.3   262  LEU262     -0.1231
     30  CA        32.1100  -15.8030   26.6620 C.3   262  LEU262      0.1693
     31  C         33.3960  -15.1580   27.1210 C.2   262  LEU262      0.2593
     32  O         34.3110  -14.9190   26.3290 O.2   262  LEU262     -0.2718
     33  CB        32.3450  -17.2870   26.3920 C.3   262  LEU262      0.0284
     34  CG        32.8460  -18.0980   27.6100 C.3   262  LEU262      0.0019
     35  CD1       31.7220  -18.2690   28.6620 C.3   262  LEU262      0.0001
     36  CD2       33.3230  -19.4770   27.1310 C.3   262  LEU262      0.0001
     37  N         33.4480  -14.8440   28.4020 N.am  263  GLY263     -0.1942
     38  CA        34.6320  -14.2180   28.9370 C.3   263  GLY263      0.2014
     39  C         35.0280  -14.8140   30.2690 C.2   263  GLY263      0.2638
     40  O         34.2240  -15.4720   30.9560 O.2   263  GLY263     -0.2714
     41  N         36.2760  -14.5670   30.6340 N.am  264  TYR264     -0.1973
     42  CA        36.8190  -15.0720   31.8820 C.3   264  TYR264      0.1639
     43  C         37.7480  -14.0480   32.4920 C.2   264  TYR264      0.2290
     44  O         38.5490  -13.4080   31.7870 O.2   264  TYR264     -0.2864
     45  CB        37.6120  -16.3560   31.6430 C.3   264  TYR264      0.0560
     46  CG        38.4990  -16.7430   32.8170 C.ar  264  TYR264     -0.0198
     47  CD1       37.9560  -17.3330   33.9600 C.ar  264  TYR264     -0.0009
     48  CD2       39.8730  -16.5430   32.7720 C.ar  264  TYR264     -0.0009
     49  CE1       38.7620  -17.7210   35.0250 C.ar  264  TYR264      0.0417
     50  CE2       40.6960  -16.9260   33.8380 C.ar  264  TYR264      0.0417
     51  CZ        40.1280  -17.5180   34.9620 C.ar  264  TYR264      0.1957
     52  OH        40.9090  -17.9250   36.0290 O.3   264  TYR264     -0.2866
     53  N         40.0580  -12.2850   29.5330 N.3   276  ILE276     -0.1231
     54  CA        40.0110  -12.7730   28.1690 C.3   276  ILE276      0.1692
     55  C         38.5350  -12.8610   27.7970 C.2   276  ILE276      0.2592
     56  O         37.7090  -13.3590   28.5600 O.2   276  ILE276     -0.2718
     57  CB        40.7420  -14.1290   27.9800 C.3   276  ILE276      0.0266
     58  CG1       40.7010  -14.5160   26.4920 C.3   276  ILE276      0.0019
     59  CG2       40.1110  -15.2110   28.8280 C.3   276  ILE276      0.0020
     60  CD1       41.7260  -15.5960   26.0840 C.3   276  ILE276      0.0001
     61  N         38.2130  -12.3240   26.6280 N.am  277  GLN277     -0.1966
     62  CA        36.8400  -12.3010   26.1230 C.3   277  GLN277      0.1733
     63  C         36.8240  -12.8720   24.7010 C.2   277  GLN277      0.2616
     64  O         37.6940  -12.5510   23.8870 O.2   277  GLN277     -0.2715
     65  CB        36.3250  -10.8600   26.0850 C.3   277  GLN277      0.0408
     66  CG        34.8410  -10.7320   26.3070 C.3   277  GLN277      0.0908
     67  CD        34.4680  -10.7730   27.7810 C.2   277  GLN277      0.2608
     68  OE1       33.2790  -10.8590   28.1410 O.2   277  GLN277     -0.2717
     69  NE2       35.4830  -10.6970   28.6490 N.am  277  GLN277     -0.0878
     70  N         35.8580  -13.7360   24.4240 N.am  278  GLY278     -0.1955
     71  CA        35.7240  -14.3210   23.0990 C.3   278  GLY278      0.1869
     72  C         34.3200  -14.0430   22.5800 C.2   278  GLY278      0.2309
     73  O         33.3640  -13.9360   23.3680 O.2   278  GLY278     -0.2863
     74  N         38.7690  -12.7900   19.6750 N.3   307  ILE307     -0.1245
     75  CA        39.2960  -13.2300   20.9600 C.3   307  ILE307      0.1561
     76  C         40.2280  -12.1280   21.4360 C.2   307  ILE307      0.2260
     77  O         41.0750  -11.6300   20.6850 O.2   307  ILE307     -0.2867
     78  CB        40.0430  -14.5710   20.8650 C.3   307  ILE307      0.0252
     79  CG1       40.3610  -15.0600   22.2850 C.3   307  ILE307      0.0019
     80  CG2       41.3100  -14.4200   20.0200 C.3   307  ILE307      0.0019
     81  CD1       40.9700  -16.4390   22.3170 C.3   307  ILE307      0.0001
@<TRIPOS>BOND
     1    74    75    1
     2    80    78    1
     3    77    76    2
     4    78    75    1
     5    78    79    1
     6    75    76    1
     7    79    81    1
     8    72    71    1
     9    72    73    2
    10    71    70    1
    11    64    63    2
    12    70    63   am
    13    63    62    1
    14    29    30    1
    15    60    58    1
    16    65    62    1
    17    65    66    1
    18    62    61    1
    19    66    67    1
    20    32    31    2
    21    33    30    1
    22    33    34    1
    23    58    57    1
    24    61    55   am
    25    30    31    1
    26    31    37   am
    27    36    34    1
    28    34    35    1
    29    67    68    2
    30    67    69   am
    31    55    54    1
    32    55    56    2
    33    57    54    1
    34    57    59    1
    35    54    53    1
    36    37    38    1
    37    38    39    1
    38    39    41   am
    39    39    40    2
    40    41    42    1
    41    45    42    1
    42    45    46    1
    43    44    43    2
    44    42    43    1
    45    48    46   ar
    46    48    50   ar
    47    46    47   ar
    48    25    27   ar
    49    25    23   ar
    50    27    28   ar
    51    20    19    1
    52    20    21    2
    53    50    51   ar
    54    22    19    1
    55    22    23    1
    56    47    49   ar
    57    19    18    1
    58    23    24   ar
    59    28    26   ar
    60    51    49   ar
    61    51    52    1
    62    24    26   ar
    63    14    16   ar
    64    14    13   ar
    65    10     9    1
    66    10    11    2
    67    12     9    1
    68    12    13    1
    69     9     8    1
    70    16    17   ar
    71    13    15   ar
    72     7     6    1
    73     7     1    1
    74    17    15   ar
    75     6     5    1
    76     1     2    1
    77     5     2    1
    78     2     3    1
    79     3     4    2
