@<TRIPOS>MOLECULE
tmp/1kmoA03.pdb
 81 80 0 0 0
SMALL
GASTEIGER

@<TRIPOS>ATOM
      1  N         27.0960  -14.7180   20.4940 N.3   260  ALA260     -0.1231
      2  CA        27.5220  -15.5230   21.6230 C.3   260  ALA260      0.1694
      3  C         28.8140  -14.8850   22.0670 C.2   260  ALA260      0.2593
      4  O         29.6960  -14.5730   21.2510 O.2   260  ALA260     -0.2718
      5  CB        27.7650  -17.0130   21.2030 C.3   260  ALA260      0.0304
      6  N         28.9150  -14.6620   23.3660 N.am  261  SER261     -0.1938
      7  CA        30.1130  -14.0750   23.9300 C.3   261  SER261      0.2055
      8  C         30.4130  -14.8190   25.2320 C.2   261  SER261      0.2642
      9  O         29.4970  -15.1330   26.0050 O.2   261  SER261     -0.2714
     10  CB        29.8850  -12.6000   24.2300 C.3   261  SER261      0.2130
     11  OG        31.1050  -12.0020   24.6160 O.3   261  SER261     -0.2179
     12  N         31.6880  -15.1050   25.4610 N.am  262  LEU262     -0.1977
     13  CA        32.1100  -15.8030   26.6620 C.3   262  LEU262      0.1596
     14  C         33.3960  -15.1580   27.1210 C.2   262  LEU262      0.2287
     15  O         34.3110  -14.9190   26.3290 O.2   262  LEU262     -0.2864
     16  CB        32.3450  -17.2870   26.3920 C.3   262  LEU262      0.0297
     17  CG        32.8460  -18.0980   27.6100 C.3   262  LEU262      0.0022
     18  CD1       31.7220  -18.2690   28.6620 C.3   262  LEU262      0.0001
     19  CD2       33.3230  -19.4770   27.1310 C.3   262  LEU262      0.0001
     20  N         35.8580  -13.7360   24.4240 N.3   278  GLY278     -0.1210
     21  CA        35.7240  -14.3210   23.0990 C.3   278  GLY278      0.1956
     22  C         34.3200  -14.0430   22.5800 C.2   278  GLY278      0.2612
     23  O         33.3640  -13.9360   23.3680 O.2   278  GLY278     -0.2717
     24  N         34.1570  -13.8930   21.2680 N.am  279  PHE279     -0.1962
     25  CA        32.8120  -13.6510   20.7700 C.3   279  PHE279      0.1771
     26  C         32.6280  -14.1040   19.3470 C.2   279  PHE279      0.2619
     27  O         33.5890  -14.2680   18.6070 O.2   279  PHE279     -0.2715
     28  CB        32.4440  -12.1670   20.9080 C.3   279  PHE279      0.0574
     29  CG        33.0520  -11.2780   19.8580 C.ar  279  PHE279     -0.0200
     30  CD1       32.3970  -11.0620   18.6500 C.ar  279  PHE279     -0.0042
     31  CD2       34.2880  -10.6710   20.0710 C.ar  279  PHE279     -0.0042
     32  CE1       32.9660  -10.2570   17.6700 C.ar  279  PHE279     -0.0003
     33  CE2       34.8600   -9.8650   19.0950 C.ar  279  PHE279     -0.0003
     34  CZ        34.2030   -9.6600   17.8950 C.ar  279  PHE279     -0.0000
     35  N         31.3670  -14.3110   18.9910 N.am  280  TYR280     -0.1974
     36  CA        30.9670  -14.7140   17.6550 C.3   280  TYR280      0.1639
     37  C         29.5910  -14.1200   17.3530 C.2   280  TYR280      0.2290
     38  O         28.6720  -14.2030   18.1800 O.2   280  TYR280     -0.2864
     39  CB        30.8680  -16.2390   17.5570 C.3   280  TYR280      0.0560
     40  CG        30.2000  -16.7200   16.2790 C.ar  280  TYR280     -0.0198
     41  CD1       30.8420  -16.5990   15.0440 C.ar  280  TYR280     -0.0009
     42  CD2       28.9140  -17.2570   16.2970 C.ar  280  TYR280     -0.0009
     43  CE1       30.2180  -16.9970   13.8580 C.ar  280  TYR280      0.0417
     44  CE2       28.2750  -17.6600   15.1100 C.ar  280  TYR280      0.0417
     45  CZ        28.9390  -17.5240   13.9020 C.ar  280  TYR280      0.1957
     46  OH        28.3300  -17.9070   12.7350 O.3   280  TYR280     -0.2866
     47  N         34.2230  -13.2280   14.3910 N.3   305  ARG305     -0.1231
     48  CA        34.6610  -13.9900   15.5540 C.3   305  ARG305      0.1694
     49  C         35.8640  -13.2250   16.0860 C.2   305  ARG305      0.2593
     50  O         36.6540  -12.6730   15.3040 O.2   305  ARG305     -0.2718
     51  CB        35.0420  -15.4320   15.1760 C.3   305  ARG305      0.0321
     52  CG        36.3740  -15.5740   14.4300 C.3   305  ARG305      0.0489
     53  CD        36.3880  -16.7840   13.4780 C.3   305  ARG305      0.2205
     54  NE        36.0450  -16.3990   12.1020 N.pl3 305  ARG305     -0.0865
     55  CZ        34.8330  -16.0230   11.6780 C.cat 305  ARG305      0.5346
     56  NH1       33.8090  -15.9880   12.5280 N.pl3 305  ARG305      0.1354
     57  NH2       34.6520  -15.6460   10.4060 N.pl3 305  ARG305      0.1354
     58  N         35.9620  -13.1360   17.4070 N.am  306  GLY306     -0.1942
     59  CA        37.0810  -12.4360   18.0030 C.3   306  GLY306      0.2014
     60  C         37.5000  -12.9950   19.3430 C.2   306  GLY306      0.2638
     61  O         36.7060  -13.6020   20.0700 O.2   306  GLY306     -0.2714
     62  N         38.7690  -12.7900   19.6750 N.am  307  ILE307     -0.1977
     63  CA        39.2960  -13.2300   20.9600 C.3   307  ILE307      0.1596
     64  C         40.2280  -12.1280   21.4360 C.2   307  ILE307      0.2287
     65  O         41.0750  -11.6300   20.6850 O.2   307  ILE307     -0.2864
     66  CB        40.0430  -14.5710   20.8650 C.3   307  ILE307      0.0276
     67  CG1       40.3610  -15.0600   22.2850 C.3   307  ILE307      0.0022
     68  CG2       41.3100  -14.4200   20.0200 C.3   307  ILE307      0.0022
     69  CD1       40.9700  -16.4390   22.3170 C.3   307  ILE307      0.0001
     70  N         42.4040  -10.4660   18.3000 N.3   330  TYR330     -0.1241
     71  CA        42.4300  -11.1030   17.0010 C.3   330  TYR330      0.1605
     72  C         40.9630  -11.0750   16.5830 C.2   330  TYR330      0.2264
     73  O         40.1100  -11.5410   17.3330 O.2   330  TYR330     -0.2867
     74  CB        42.8690  -12.5570   17.1040 C.3   330  TYR330      0.0534
     75  CG        42.6100  -13.3040   15.8220 C.ar  330  TYR330     -0.0201
     76  CD1       43.2970  -12.9780   14.6750 C.ar  330  TYR330     -0.0009
     77  CD2       41.6370  -14.3100   15.7480 C.ar  330  TYR330     -0.0009
     78  CE1       43.0310  -13.6240   13.4710 C.ar  330  TYR330      0.0417
     79  CE2       41.3720  -14.9660   14.5480 C.ar  330  TYR330      0.0417
     80  CZ        42.0710  -14.6100   13.4190 C.ar  330  TYR330      0.1957
     81  OH        41.8020  -15.2030   12.2070 O.3   330  TYR330     -0.2866
@<TRIPOS>BOND
     1    57    55    1
     2    55    54    2
     3    55    56    1
     4    54    53    1
     5    81    80    1
     6    46    45    1
     7    80    78   ar
     8    80    79   ar
     9    78    76   ar
    10    53    52    1
    11    43    45   ar
    12    43    41   ar
    13    45    44   ar
    14    47    48    1
    15    52    51    1
    16    79    77   ar
    17    76    75   ar
    18    41    40   ar
    19    44    42   ar
    20    51    48    1
    21    50    49    2
    22    48    49    1
    23    77    75   ar
    24    75    74    1
    25    49    58   am
    26    40    42   ar
    27    40    39    1
    28    72    71    1
    29    72    73    2
    30    71    74    1
    31    71    70    1
    32    37    36    1
    33    37    38    2
    34    58    59    1
    35    39    36    1
    36    36    35    1
    37    32    34   ar
    38    32    30   ar
    39    34    33   ar
    40    59    60    1
    41    27    26    2
    42    30    29   ar
    43    35    26   am
    44    33    31   ar
    45    60    62   am
    46    60    61    2
    47    26    25    1
    48    62    63    1
    49    29    31   ar
    50    29    28    1
    51    68    66    1
    52     1     2    1
    53    65    64    2
    54    25    28    1
    55    25    24    1
    56    66    63    1
    57    66    67    1
    58    63    64    1
    59     5     2    1
    60     4     3    2
    61    24    22   am
    62     2     3    1
    63     3     6   am
    64    67    69    1
    65    22    21    1
    66    22    23    2
    67    21    20    1
    68     6     7    1
    69     7    10    1
    70     7     8    1
    71    10    11    1
    72     8    12   am
    73     8     9    2
    74    12    13    1
    75    15    14    2
    76    16    13    1
    77    16    17    1
    78    13    14    1
    79    19    17    1
    80    17    18    1
