@<TRIPOS>MOLECULE
tmp/1kmoA07.pdb
 99 94 0 0 0
SMALL
GASTEIGER

@<TRIPOS>ATOM
      1  N          9.4690   -4.6890   34.1840 N.3   147  ALA147     -0.1231
      2  CA         8.8440   -4.6500   32.8720 C.3   147  ALA147      0.1694
      3  C          8.3030   -3.2520   32.6250 C.2   147  ALA147      0.2593
      4  O          7.8910   -2.5560   33.5480 O.2   147  ALA147     -0.2718
      5  CB         7.7320   -5.6890   32.7890 C.3   147  ALA147      0.0304
      6  N          8.3360   -2.8390   31.3630 N.am  148  GLY148     -0.1942
      7  CA         7.8470   -1.5270   31.0290 C.3   148  GLY148      0.2014
      8  C          7.3230   -1.4660   29.6120 C.2   148  GLY148      0.2638
      9  O          7.5780   -2.3500   28.7840 O.2   148  GLY148     -0.2714
     10  N          6.5890   -0.4060   29.3380 N.am  149  VAL149     -0.1977
     11  CA         6.0190   -0.2040   28.0250 C.3   149  VAL149      0.1596
     12  C          5.7660    1.2870   27.8330 C.2   149  VAL149      0.2287
     13  O          5.4940    2.0300   28.7900 O.2   149  VAL149     -0.2864
     14  CB         4.6700   -0.9980   27.8820 C.3   149  VAL149      0.0276
     15  CG1        3.6860   -0.5430   28.9700 C.3   149  VAL149      0.0022
     16  CG2        4.0400   -0.7840   26.4830 C.3   149  VAL149      0.0022
     17  N          8.2740   -2.2110   24.3820 N.3   166  HIS166     -0.1226
     18  CA         8.2250   -2.8100   25.7060 C.3   166  HIS166      0.1752
     19  C          9.5550   -3.4540   26.0750 C.2   166  HIS166      0.2596
     20  O         10.3920   -3.7430   25.2090 O.2   166  HIS166     -0.2718
     21  CB         7.1350   -3.8630   25.7580 C.3   166  HIS166      0.0759
     22  CG         7.1770   -4.8030   24.6040 C.ar  166  HIS166      0.0818
     23  ND1        6.3290   -4.6900   23.5210 N.ar  166  HIS166     -0.2268
     24  CD2        8.0240   -5.8210   24.3140 C.ar  166  HIS166      0.1154
     25  CE1        6.6540   -5.5940   22.6150 C.ar  166  HIS166      0.1986
     26  NE2        7.6810   -6.2920   23.0720 N.ar  166  HIS166     -0.2212
     27  N          9.7660   -3.6500   27.3670 N.am  167  ASN167     -0.1960
     28  CA        10.9760   -4.3050   27.8070 C.3   167  ASN167      0.1819
     29  C         10.7060   -5.1790   29.0130 C.2   167  ASN167      0.2621
     30  O          9.7830   -4.9590   29.8090 O.2   167  ASN167     -0.2715
     31  CB        12.1250   -3.3090   28.0510 C.3   167  ASN167      0.1195
     32  CG        11.8250   -2.3000   29.1300 C.2   167  ASN167      0.2630
     33  OD1       12.0690   -2.5490   30.3220 O.2   167  ASN167     -0.2716
     34  ND2       11.3010   -1.1400   28.7250 N.am  167  ASN167     -0.0877
     35  N         11.4860   -6.2370   29.0990 N.am  168  LEU168     -0.1977
     36  CA        11.3310   -7.1630   30.1880 C.3   168  LEU168      0.1596
     37  C         12.7030   -7.5420   30.7070 C.2   168  LEU168      0.2287
     38  O         13.6480   -7.7380   29.9290 O.2   168  LEU168     -0.2864
     39  CB        10.5820   -8.3830   29.6860 C.3   168  LEU168      0.0297
     40  CG        10.5660   -9.6250   30.5730 C.3   168  LEU168      0.0022
     41  CD1        9.8320   -9.3020   31.8930 C.3   168  LEU168      0.0001
     42  CD2        9.8550  -10.7630   29.8360 C.3   168  LEU168      0.0001
     43  N         14.6800   -8.8220   27.4210 N.3   184  TYR184     -0.1241
     44  CA        13.9010   -8.7620   26.1930 C.3   184  TYR184      0.1605
     45  C         13.3490   -7.3390   25.9610 C.2   184  TYR184      0.2264
     46  O         12.8550   -6.6840   26.8860 O.2   184  TYR184     -0.2867
     47  CB        12.7330   -9.7770   26.2470 C.3   184  TYR184      0.0534
     48  CG        11.7560   -9.6120   25.0980 C.ar  184  TYR184     -0.0201
     49  CD1       12.1480   -9.8560   23.7760 C.ar  184  TYR184     -0.0009
     50  CD2       10.4740   -9.1470   25.3220 C.ar  184  TYR184     -0.0009
     51  CE1       11.2760   -9.6270   22.7030 C.ar  184  TYR184      0.0417
     52  CE2        9.5870   -8.9150   24.2640 C.ar  184  TYR184      0.0417
     53  CZ         9.9980   -9.1520   22.9530 C.ar  184  TYR184      0.1957
     54  OH         9.1290   -8.8730   21.9020 O.3   184  TYR184     -0.2866
     55  N          6.7580   -2.5910   18.2360 N.3   188  ARG188     -0.1245
     56  CA         5.7180   -2.9810   17.2840 C.3   188  ARG188      0.1563
     57  C          5.0640   -1.6560   16.8930 C.2   188  ARG188      0.2260
     58  O          4.8660   -0.7690   17.7350 O.2   188  ARG188     -0.2867
     59  CB         4.6570   -3.8860   17.9320 C.3   188  ARG188      0.0307
     60  CG         5.1420   -5.2640   18.3910 C.3   188  ARG188      0.0489
     61  CD         5.5040   -6.1570   17.2210 C.3   188  ARG188      0.2205
     62  NE         5.8440   -7.5100   17.6540 N.pl3 188  ARG188     -0.0865
     63  CZ         6.9580   -7.8550   18.3060 C.cat 188  ARG188      0.5346
     64  NH1        7.8780   -6.9500   18.6200 N.pl3 188  ARG188      0.1354
     65  NH2        7.1600   -9.1290   18.6320 N.pl3 188  ARG188      0.1354
     66  N         12.3240   -7.6970   17.8190 N.3   201  ASP201     -0.1239
     67  CA        12.3770   -8.5550   18.9930 C.3   201  ASP201      0.1674
     68  C         13.8530   -8.6780   19.3150 C.2   201  ASP201      0.2266
     69  O         14.6510   -9.0680   18.4620 O.2   201  ASP201     -0.2867
     70  CB        11.7580   -9.9210   18.6970 C.3   201  ASP201      0.1410
     71  CG        10.2470   -9.8400   18.5710 C.2   201  ASP201      0.3668
     72  OD1        9.5870   -9.4700   19.5680 O.co2 201  ASP201     -0.2456
     73  OD2        9.7260  -10.1140   17.4760 O.co2 201  ASP201     -0.2456
     74  N          5.2170    0.6090   40.8540 N.3   619  LEU619     -0.1245
     75  CA         4.5150    1.0240   39.6490 C.3   619  LEU619      0.1561
     76  C          4.8060    2.4850   39.2910 C.2   619  LEU619      0.2260
     77  O          4.6480    3.3830   40.1220 O.2   619  LEU619     -0.2867
     78  CB         3.0030    0.8600   39.8250 C.3   619  LEU619      0.0270
     79  CG         2.0390    1.2760   38.6960 C.3   619  LEU619      0.0019
     80  CD1        2.2180    2.7330   38.3650 C.3   619  LEU619      0.0001
     81  CD2        2.2710    0.4620   37.4470 C.3   619  LEU619      0.0001
     82  N          4.5370    3.0170   31.3000 N.3   657  GLY657     -0.1210
     83  CA         4.1720    2.2400   32.4590 C.3   657  GLY657      0.1956
     84  C          5.3110    1.2920   32.7720 C.2   657  GLY657      0.2613
     85  O          5.9170    0.7300   31.8620 O.2   657  GLY657     -0.2717
     86  N          5.6360    1.1160   34.0480 N.am  658  SER658     -0.1938
     87  CA         6.6860    0.1790   34.4080 C.3   658  SER658      0.2055
     88  C          6.3720   -0.4650   35.7600 C.2   658  SER658      0.2642
     89  O          5.7130    0.1250   36.6280 O.2   658  SER658     -0.2714
     90  CB         8.0650    0.8610   34.4600 C.3   658  SER658      0.2130
     91  OG         8.1820    1.7490   35.5640 O.3   658  SER658     -0.2179
     92  N          6.8200   -1.7010   35.9030 N.am  659  LEU659     -0.1977
     93  CA         6.6450   -2.4230   37.1450 C.3   659  LEU659      0.1596
     94  C          7.9620   -3.0500   37.5280 C.2   659  LEU659      0.2287
     95  O          8.7640   -3.4060   36.6680 O.2   659  LEU659     -0.2864
     96  CB         5.5780   -3.5050   37.0100 C.3   659  LEU659      0.0297
     97  CG         4.1750   -2.9900   37.3320 C.3   659  LEU659      0.0022
     98  CD1        3.1410   -4.0080   36.9250 C.3   659  LEU659      0.0001
     99  CD2        4.0760   -2.7060   38.8160 C.3   659  LEU659      0.0001
@<TRIPOS>BOND
     1    57    56    1
     2    57    58    2
     3    61    62    1
     4    61    60    1
     5    56    59    1
     6    56    55    1
     7    73    71   ar
     8    62    63    2
     9    66    67    1
    10    59    60    1
    11    63    64    1
    12    63    65    1
    13    69    68    2
    14    71    70    1
    15    71    72   ar
    16    70    67    1
    17    67    68    1
    18    54    53    1
    19    25    26   ar
    20    25    23   ar
    21    51    53   ar
    22    51    49   ar
    23    53    52   ar
    24    26    24   ar
    25    23    22   ar
    26    49    48   ar
    27    52    50   ar
    28    24    22   ar
    29    17    18    1
    30    22    21    1
    31    48    50   ar
    32    48    47    1
    33    20    19    2
    34    18    21    1
    35    18    19    1
    36    45    44    1
    37    45    46    2
    38    19    27   am
    39    44    47    1
    40    44    43    1
    41    16    14    1
    42    27    28    1
    43    28    31    1
    44    28    29    1
    45    12    11    1
    46    12    13    2
    47    14    11    1
    48    14    15    1
    49    11    10    1
    50    31    32    1
    51    34    32   am
    52     9     8    2
    53    29    35   am
    54    29    30    2
    55    35    36    1
    56    32    33    2
    57    10     8   am
    58     8     7    1
    59    39    36    1
    60    39    40    1
    61    42    40    1
    62    38    37    2
    63    36    37    1
    64    40    41    1
    65     7     6    1
    66    82    83    1
    67     6     3   am
    68    85    84    2
    69    83    84    1
    70     3     2    1
    71     3     4    2
    72    84    86   am
    73     5     2    1
    74     2     1    1
    75    86    87    1
    76    87    90    1
    77    87    88    1
    78    90    91    1
    79    88    92   am
    80    88    89    2
    81    92    93    1
    82    95    94    2
    83    98    97    1
    84    96    93    1
    85    96    97    1
    86    93    94    1
    87    97    99    1
    88    81    79    1
    89    80    79    1
    90    79    78    1
    91    76    75    1
    92    76    77    2
    93    75    78    1
    94    75    74    1
