@<TRIPOS>MOLECULE
tmp/1kmoA06.pdb
 81 79 0 0 0
SMALL
GASTEIGER

@<TRIPOS>ATOM
      1  N         42.3000   19.2560   40.4140 N.3   421  LEU421     -0.1245
      2  CA        42.3040   20.5870   41.0280 C.3   421  LEU421      0.1561
      3  C         41.8260   20.4320   42.4650 C.2   421  LEU421      0.2260
      4  O         42.4780   20.8780   43.3930 O.2   421  LEU421     -0.2867
      5  CB        41.3500   21.5310   40.3040 C.3   421  LEU421      0.0270
      6  CG        41.9260   22.5220   39.2970 C.3   421  LEU421      0.0019
      7  CD1       40.7700   23.2570   38.5970 C.3   421  LEU421      0.0001
      8  CD2       42.8460   23.5100   40.0150 C.3   421  LEU421      0.0001
      9  N         36.8400   18.5620   41.2450 N.3   425  TRP425     -0.1241
     10  CA        37.1230   19.3530   40.0550 C.3   425  TRP425      0.1605
     11  C         38.3810   18.8400   39.3520 C.2   425  TRP425      0.2264
     12  O         39.4860   18.9260   39.9010 O.2   425  TRP425     -0.2867
     13  CB        37.3130   20.8230   40.4460 C.3   425  TRP425      0.0550
     14  CG        37.3330   21.7930   39.3060 C.ar  425  TRP425      0.0003
     15  CD1       37.2610   21.5000   37.9760 C.ar  425  TRP425      0.0946
     16  CD2       37.4190   23.2240   39.3980 C.ar  425  TRP425      0.0152
     17  NE1       37.2950   22.6580   37.2360 N.ar  425  TRP425     -0.2442
     18  CE2       37.3920   23.7320   38.0840 C.ar  425  TRP425      0.0810
     19  CE3       37.5180   24.1300   40.4710 C.ar  425  TRP425      0.0012
     20  CZ2       37.4630   25.1070   37.8010 C.ar  425  TRP425      0.0191
     21  CZ3       37.5890   25.4920   40.1930 C.ar  425  TRP425      0.0001
     22  CH2       37.5610   25.9680   38.8660 C.ar  425  TRP425      0.0015
     23  N         40.7530   18.4770   35.6100 N.3   427  LEU427     -0.1231
     24  CA        41.1930   19.1310   34.3900 C.3   427  LEU427      0.1693
     25  C         41.7820   17.9990   33.5480 C.2   427  LEU427      0.2592
     26  O         42.3860   17.0660   34.0830 O.2   427  LEU427     -0.2718
     27  CB        42.2980   20.1380   34.7060 C.3   427  LEU427      0.0284
     28  CG        42.0750   21.6500   34.6930 C.3   427  LEU427      0.0019
     29  CD1       40.7520   22.0200   35.3140 C.3   427  LEU427      0.0001
     30  CD2       43.2280   22.3000   35.4430 C.3   427  LEU427      0.0001
     31  N         41.6060   18.0460   32.2380 N.am  428  TYR428     -0.1976
     32  CA        42.1980   16.9820   31.4230 C.3   428  TYR428      0.1639
     33  C         42.6580   17.5210   30.1120 C.2   428  TYR428      0.2290
     34  O         42.1920   18.5570   29.6670 O.2   428  TYR428     -0.2864
     35  CB        41.2180   15.8090   31.1900 C.3   428  TYR428      0.0560
     36  CG        40.0360   16.1170   30.2820 C.ar  428  TYR428     -0.0198
     37  CD1       40.2030   16.2300   28.8930 C.ar  428  TYR428     -0.0009
     38  CD2       38.7780   16.3620   30.8140 C.ar  428  TYR428     -0.0009
     39  CE1       39.1380   16.5960   28.0570 C.ar  428  TYR428      0.0417
     40  CE2       37.6890   16.7250   29.9780 C.ar  428  TYR428      0.0417
     41  CZ        37.8840   16.8400   28.6150 C.ar  428  TYR428      0.1957
     42  OH        36.8480   17.2130   27.7980 O.3   428  TYR428     -0.2866
     43  N         40.9740   19.3710   25.4440 N.3   462  LEU462     -0.1231
     44  CA        41.3100   20.1380   26.6390 C.3   462  LEU462      0.1693
     45  C         39.9500   20.3320   27.2930 C.2   462  LEU462      0.2593
     46  O         38.9840   20.6710   26.6090 O.2   462  LEU462     -0.2718
     47  CB        41.8700   21.5080   26.2820 C.3   462  LEU462      0.0284
     48  CG        43.3360   21.5440   25.8920 C.3   462  LEU462      0.0019
     49  CD1       43.7570   22.9670   25.5100 C.3   462  LEU462      0.0001
     50  CD2       44.1490   21.0420   27.0960 C.3   462  LEU462      0.0001
     51  N         39.8550   20.1190   28.5990 N.am  463  GLY463     -0.1942
     52  CA        38.5660   20.2990   29.2320 C.3   463  GLY463      0.2014
     53  C         38.6210   20.1400   30.7260 C.2   463  GLY463      0.2639
     54  O         39.6800   19.8710   31.3070 O.2   463  GLY463     -0.2714
     55  N         37.4610   20.3120   31.3500 N.am  464  THR464     -0.1950
     56  CA        37.3440   20.2120   32.7820 C.3   464  THR464      0.1897
     57  C         35.9850   19.6090   33.1510 C.2   464  THR464      0.2313
     58  O         35.0080   19.7550   32.4130 O.2   464  THR464     -0.2863
     59  CB        37.5230   21.6310   33.4290 C.3   464  THR464      0.1794
     60  OG1       37.3930   21.5270   34.8430 O.3   464  THR464     -0.2208
     61  CG2       36.4700   22.6280   32.9040 C.3   464  THR464      0.0378
     62  N         33.1820   21.2050   30.5710 N.3   475  MET475     -0.1230
     63  CA        33.3560   22.0060   29.3820 C.3   475  MET475      0.1702
     64  C         34.6570   21.5630   28.7800 C.2   475  MET475      0.2593
     65  O         35.6610   21.4530   29.4830 O.2   475  MET475     -0.2718
     66  CB        33.4300   23.5010   29.6790 C.3   475  MET475      0.0401
     67  CG        33.6210   24.3320   28.4050 C.3   475  MET475      0.0596
     68  SD        33.3530   26.1020   28.6500 S.3   475  MET475     -0.1393
     69  CE        31.4970   26.1920   28.6460 C.3   475  MET475      0.0692
     70  N         34.6500   21.2840   27.4890 N.am  476  GLY476     -0.1942
     71  CA        35.8970   20.8780   26.8810 C.3   476  GLY476      0.2014
     72  C         35.9960   21.3760   25.4660 C.2   476  GLY476      0.2638
     73  O         34.9930   21.7350   24.8640 O.2   476  GLY476     -0.2714
     74  N         37.2200   21.4250   24.9480 N.am  477  LEU477     -0.1977
     75  CA        37.4540   21.8310   23.5710 C.3   477  LEU477      0.1596
     76  C         38.0090   20.5870   22.8910 C.2   477  LEU477      0.2287
     77  O         38.5190   19.6770   23.5670 O.2   477  LEU477     -0.2864
     78  CB        38.4960   22.9390   23.4830 C.3   477  LEU477      0.0297
     79  CG        38.2250   24.2570   24.2150 C.3   477  LEU477      0.0022
     80  CD1       39.4010   25.2210   23.9600 C.3   477  LEU477      0.0001
     81  CD2       36.9400   24.8810   23.7090 C.3   477  LEU477      0.0001
@<TRIPOS>BOND
     1    76    77    2
     2    76    75    1
     3    78    75    1
     4    78    79    1
     5    75    74    1
     6    81    79    1
     7    80    79    1
     8    73    72    2
     9    74    72   am
    10    43    44    1
    11    72    71    1
    12    49    48    1
    13    48    47    1
    14    48    50    1
    15    47    44    1
    16    46    45    2
    17    44    45    1
    18    71    70    1
    19    45    51   am
    20    70    64   am
    21    42    41    1
    22    39    41   ar
    23    39    37   ar
    24    67    68    1
    25    67    66    1
    26    51    52    1
    27    41    40   ar
    28    69    68    1
    29    64    63    1
    30    64    65    2
    31    37    36   ar
    32    52    53    1
    33    63    66    1
    34    63    62    1
    35    34    33    2
    36    40    38   ar
    37    33    32    1
    38    36    38   ar
    39    36    35    1
    40    53    54    2
    41    53    55   am
    42    35    32    1
    43    55    56    1
    44    32    31    1
    45    31    25   am
    46    58    57    2
    47    56    57    1
    48    56    59    1
    49    61    59    1
    50    59    60    1
    51    25    26    2
    52    25    24    1
    53    24    27    1
    54    24    23    1
    55    28    27    1
    56    28    29    1
    57    28    30    1
    58    17    15   ar
    59    17    18   ar
    60    20    18   ar
    61    20    22   ar
    62    15    14   ar
    63    18    16   ar
    64     7     6    1
    65    22    21   ar
    66     6     8    1
    67     6     5    1
    68    14    16   ar
    69    14    13    1
    70    11    12    2
    71    11    10    1
    72    16    19   ar
    73    10    13    1
    74    10     9    1
    75    21    19   ar
    76     5     2    1
    77     1     2    1
    78     2     3    1
    79     3     4    2
