@<TRIPOS>MOLECULE
tmp/1kmpA04.pdb
 93 89 0 0 0
SMALL
GASTEIGER

@<TRIPOS>ATOM
      1  N          6.7460   -0.6100   29.3370 N.3   131  VAL131     -0.1231
      2  CA         6.1070   -0.4420   28.0430 C.3   131  VAL131      0.1692
      3  C          5.7460    1.0060   27.7790 C.2   131  VAL131      0.2592
      4  O          5.3500    1.7280   28.6920 O.2   131  VAL131     -0.2718
      5  CB         4.8260   -1.2850   27.9230 C.3   131  VAL131      0.0266
      6  CG1        3.7660   -0.7800   28.8880 C.3   131  VAL131      0.0020
      7  CG2        4.3130   -1.2210   26.4900 C.3   131  VAL131      0.0020
      8  N          5.9030    1.4340   26.5320 N.am  132  GLU132     -0.1966
      9  CA         5.5610    2.7920   26.1420 C.3   132  GLU132      0.1733
     10  C          4.7410    2.7430   24.8680 C.2   132  GLU132      0.2616
     11  O          4.9150    1.8510   24.0420 O.2   132  GLU132     -0.2715
     12  CB         6.8120    3.6300   25.8990 C.3   132  GLU132      0.0429
     13  CG         6.4920    5.0220   25.3720 C.3   132  GLU132      0.1163
     14  CD         7.6960    5.9410   25.3270 C.2   132  GLU132      0.3649
     15  OE1        8.3910    6.0790   26.3580 O.co2 132  GLU132     -0.2457
     16  OE2        7.9440    6.5430   24.2600 O.co2 132  GLU132     -0.2457
     17  N          3.8380    3.7000   24.7140 N.am  133  GLY133     -0.1955
     18  CA         3.0220    3.7620   23.5190 C.3   133  GLY133      0.1869
     19  C          2.9770    5.2090   23.0830 C.2   133  GLY133      0.2309
     20  O          2.7070    6.0890   23.9010 O.2   133  GLY133     -0.2863
     21  N          1.6140    8.1700   20.0570 N.3   135  LEU135     -0.1245
     22  CA         0.6240    8.4680   19.0250 C.3   135  LEU135      0.1561
     23  C          0.9650    9.8300   18.4380 C.2   135  LEU135      0.2260
     24  O          1.3960   10.7180   19.1670 O.2   135  LEU135     -0.2867
     25  CB        -0.7760    8.5340   19.6290 C.3   135  LEU135      0.0270
     26  CG        -1.3690    7.2260   20.1480 C.3   135  LEU135      0.0019
     27  CD1       -2.6460    7.5070   20.9330 C.3   135  LEU135      0.0001
     28  CD2       -1.6480    6.3050   18.9670 C.3   135  LEU135      0.0001
     29  N         -0.2740    3.0830   16.1940 N.3   144  PRO144     -0.2116
     30  CA         0.5210    3.5410   17.3260 C.3   144  PRO144      0.1372
     31  C          1.8300    2.7970   17.3110 C.2   144  PRO144      0.2244
     32  O          1.9970    1.8600   16.5310 O.2   144  PRO144     -0.2868
     33  CB        -0.3360    3.1290   18.5060 C.3   144  PRO144      0.0268
     34  CG        -0.8060    1.8000   18.0720 C.3   144  PRO144      0.0207
     35  CD        -1.2280    2.0510   16.6340 C.3   144  PRO144      0.0892
     36  N          4.3110    0.8660   19.9810 N.3   146  GLU146     -0.1245
     37  CA         4.5430    0.4100   21.3380 C.3   146  GLU146      0.1567
     38  C          5.8480   -0.3650   21.3740 C.2   146  GLU146      0.2260
     39  O          6.1780   -1.0990   20.4390 O.2   146  GLU146     -0.2867
     40  CB         3.3670   -0.4490   21.8270 C.3   146  GLU146      0.0388
     41  CG         3.1730   -1.7590   21.0910 C.3   146  GLU146      0.1160
     42  CD         4.0000   -2.9000   21.6810 C.2   146  GLU146      0.3649
     43  OE1        3.7540   -3.2950   22.8510 O.co2 146  GLU146     -0.2457
     44  OE2        4.8930   -3.4120   20.9670 O.co2 146  GLU146     -0.2457
     45  N          4.7560   13.8410   33.0710 N.3   582  VAL582     -0.1245
     46  CA         4.2730   13.7320   34.4450 C.3   582  VAL582      0.1561
     47  C          4.2700   12.2360   34.7760 C.2   582  VAL582      0.2260
     48  O          3.7810   11.4170   33.9920 O.2   582  VAL582     -0.2867
     49  CB         2.8380   14.3390   34.6120 C.3   582  VAL582      0.0252
     50  CG1        1.8560   13.6780   33.6620 C.3   582  VAL582      0.0019
     51  CG2        2.3720   14.1790   36.0480 C.3   582  VAL582      0.0019
     52  N          2.6500    9.8830   31.7190 N.3   596  PHE596     -0.1227
     53  CA         2.0960   10.3240   30.4430 C.3   596  PHE596      0.1736
     54  C          2.8520   11.5800   30.0460 C.2   596  PHE596      0.2596
     55  O          3.2170   12.3730   30.9020 O.2   596  PHE596     -0.2718
     56  CB         0.5970   10.6310   30.5680 C.3   596  PHE596      0.0547
     57  CG        -0.2580    9.4110   30.8260 C.ar  596  PHE596     -0.0202
     58  CD1       -0.3780    8.8790   32.1170 C.ar  596  PHE596     -0.0042
     59  CD2       -0.9420    8.7840   29.7760 C.ar  596  PHE596     -0.0042
     60  CE1       -1.1680    7.7430   32.3590 C.ar  596  PHE596     -0.0003
     61  CE2       -1.7340    7.6500   30.0050 C.ar  596  PHE596     -0.0003
     62  CZ        -1.8460    7.1290   31.3010 C.ar  596  PHE596     -0.0000
     63  N          3.1040   11.7720   28.7610 N.am  597  GLY597     -0.1942
     64  CA         3.8430   12.9570   28.3750 C.3   597  GLY597      0.2014
     65  C          3.5970   13.3740   26.9520 C.2   597  GLY597      0.2638
     66  O          2.8120   12.7590   26.2520 O.2   597  GLY597     -0.2714
     67  N          4.2790   14.4260   26.5230 N.am  598  VAL598     -0.1977
     68  CA         4.1430   14.9360   25.1700 C.3   598  VAL598      0.1596
     69  C          5.5140   15.3530   24.6450 C.2   598  VAL598      0.2287
     70  O          6.3720   15.7990   25.4110 O.2   598  VAL598     -0.2864
     71  CB         3.2000   16.1530   25.1420 C.3   598  VAL598      0.0276
     72  CG1        3.1080   16.7210   23.7410 C.3   598  VAL598      0.0022
     73  CG2        1.8170   15.7320   25.6170 C.3   598  VAL598      0.0022
     74  N          2.0120   12.0940   21.6970 N.3   626  LEU626     -0.1231
     75  CA         1.5600   11.7750   23.0470 C.3   626  LEU626      0.1693
     76  C          2.1180   10.3970   23.3840 C.2   626  LEU626      0.2592
     77  O          2.3190    9.5820   22.4880 O.2   626  LEU626     -0.2718
     78  CB         0.0330   11.7560   23.0950 C.3   626  LEU626      0.0284
     79  CG        -0.6020   12.9960   22.4460 C.3   626  LEU626      0.0019
     80  CD1       -2.1100   12.8190   22.3480 C.3   626  LEU626      0.0001
     81  CD2       -0.2650   14.2420   23.2510 C.3   626  LEU626      0.0001
     82  N          2.4000   10.1330   24.6560 N.am  627  TYR627     -0.1976
     83  CA         2.9260    8.8210   25.0310 C.3   627  TYR627      0.1639
     84  C          2.6100    8.4360   26.4650 C.2   627  TYR627      0.2290
     85  O          2.4320    9.2910   27.3240 O.2   627  TYR627     -0.2864
     86  CB         4.4470    8.7470   24.7780 C.3   627  TYR627      0.0560
     87  CG         5.3270    9.6100   25.6710 C.ar  627  TYR627     -0.0198
     88  CD1        5.6650    9.2020   26.9660 C.ar  627  TYR627     -0.0009
     89  CD2        5.8560   10.8140   25.2060 C.ar  627  TYR627     -0.0009
     90  CE1        6.5100    9.9660   27.7670 C.ar  627  TYR627      0.0417
     91  CE2        6.6990   11.5860   25.9980 C.ar  627  TYR627      0.0417
     92  CZ         7.0250   11.1540   27.2730 C.ar  627  TYR627      0.1957
     93  OH         7.8970   11.8910   28.0370 O.3   627  TYR627     -0.2866
@<TRIPOS>BOND
     1    29    35    1
     2    29    30    1
     3    32    31    2
     4    35    34    1
     5    31    30    1
     6    30    33    1
     7    34    33    1
     8    23    22    1
     9    23    24    2
    10    28    26    1
    11    22    25    1
    12    22    21    1
    13    25    26    1
    14    36    37    1
    15    26    27    1
    16    39    38    2
    17    44    42   ar
    18    41    42    1
    19    41    40    1
    20    37    38    1
    21    37    40    1
    22    42    43   ar
    23    74    75    1
    24    80    79    1
    25    79    78    1
    26    79    81    1
    27    77    76    2
    28    75    78    1
    29    75    76    1
    30    19    18    1
    31    19    20    2
    32    76    82   am
    33    18    17    1
    34    72    71    1
    35    11    10    2
    36    16    14   ar
    37    69    68    1
    38    69    70    2
    39    82    83    1
    40    17    10   am
    41    86    83    1
    42    86    87    1
    43    10     9    1
    44    83    84    1
    45    71    68    1
    46    71    73    1
    47    68    67    1
    48    89    87   ar
    49    89    91   ar
    50    14    13    1
    51    14    15   ar
    52    13    12    1
    53    87    88   ar
    54    12     9    1
    55    91    92   ar
    56     9     8    1
    57    66    65    2
    58    84    85    2
    59     7     5    1
    60    67    65   am
    61     8     3   am
    62    65    64    1
    63    88    90   ar
    64    92    90   ar
    65    92    93    1
    66     3     2    1
    67     3     4    2
    68     5     2    1
    69     5     6    1
    70     2     1    1
    71    64    63    1
    72    63    54   am
    73    59    61   ar
    74    59    57   ar
    75    61    62   ar
    76    54    53    1
    77    54    55    2
    78    53    56    1
    79    53    52    1
    80    56    57    1
    81    57    58   ar
    82    62    60   ar
    83    58    60   ar
    84    45    46    1
    85    50    49    1
    86    48    47    2
    87    46    49    1
    88    46    47    1
    89    49    51    1
