@<TRIPOS>MOLECULE
tmp/1kmpA12.pdb
 87 83 0 0 0
SMALL
GASTEIGER

@<TRIPOS>ATOM
      1  N         36.9290   18.4650   41.3940 N.3   401  TRP401     -0.1241
      2  CA        37.1360   19.3220   40.2420 C.3   401  TRP401      0.1605
      3  C         38.4380   18.9070   39.5450 C.2   401  TRP401      0.2264
      4  O         39.5280   19.0620   40.1040 O.2   401  TRP401     -0.2867
      5  CB        37.1990   20.7840   40.6930 C.3   401  TRP401      0.0550
      6  CG        37.3590   21.7430   39.5750 C.ar  401  TRP401      0.0003
      7  CD1       37.4020   21.4470   38.2440 C.ar  401  TRP401      0.0946
      8  CD2       37.5300   23.1610   39.6790 C.ar  401  TRP401      0.0152
      9  NE1       37.5950   22.5900   37.5110 N.ar  401  TRP401     -0.2442
     10  CE2       37.6770   23.6600   38.3660 C.ar  401  TRP401      0.0810
     11  CE3       37.5730   24.0620   40.7550 C.ar  401  TRP401      0.0012
     12  CZ2       37.8680   25.0310   38.0940 C.ar  401  TRP401      0.0191
     13  CZ3       37.7620   25.4270   40.4850 C.ar  401  TRP401      0.0001
     14  CH2       37.9070   25.8920   39.1610 C.ar  401  TRP401      0.0015
     15  N         37.6580   20.2010   31.6170 N.3   440  THR440     -0.1218
     16  CA        37.5760   20.1820   33.0670 C.3   440  THR440      0.1862
     17  C         36.2270   19.5590   33.3990 C.2   440  THR440      0.2287
     18  O         35.2980   19.6410   32.6040 O.2   440  THR440     -0.2866
     19  CB        37.6410   21.6130   33.6410 C.3   440  THR440      0.1770
     20  OG1       37.4530   21.5740   35.0640 O.3   440  THR440     -0.2211
     21  CG2       36.5620   22.4910   33.0060 C.3   440  THR440      0.0375
     22  N         33.4680   19.0590   36.8180 N.3   442  TYR442     -0.1241
     23  CA        33.2110   19.4830   38.1920 C.3   442  TYR442      0.1605
     24  C         31.9580   18.8600   38.7930 C.2   442  TYR442      0.2264
     25  O         30.9820   18.6120   38.0890 O.2   442  TYR442     -0.2867
     26  CB        33.1130   21.0030   38.2340 C.3   442  TYR442      0.0534
     27  CG        32.9740   21.5790   39.6180 C.ar  442  TYR442     -0.0201
     28  CD1       31.7450   21.5890   40.2700 C.ar  442  TYR442     -0.0009
     29  CD2       34.0730   22.1350   40.2710 C.ar  442  TYR442     -0.0009
     30  CE1       31.6090   22.1490   41.5430 C.ar  442  TYR442      0.0417
     31  CE2       33.9530   22.6930   41.5430 C.ar  442  TYR442      0.0417
     32  CZ        32.7170   22.7020   42.1760 C.ar  442  TYR442      0.1957
     33  OH        32.5810   23.2730   43.4290 O.3   442  TYR442     -0.2866
     34  N         29.9000   18.5720   42.9870 N.3   444  ASP444     -0.1239
     35  CA        29.9480   18.7950   44.4260 C.3   444  ASP444      0.1674
     36  C         28.6150   18.5320   45.1190 C.2   444  ASP444      0.2266
     37  O         28.3430   19.1160   46.1760 O.2   444  ASP444     -0.2867
     38  CB        30.3420   20.2290   44.7170 C.3   444  ASP444      0.1410
     39  CG        29.2490   21.1890   44.3590 C.2   444  ASP444      0.3668
     40  OD1       29.1690   21.5750   43.1770 O.co2 444  ASP444     -0.2456
     41  OD2       28.4490   21.5360   45.2510 O.co2 444  ASP444     -0.2456
     42  N         25.7060   19.5320   44.3530 N.3   446  ALA446     -0.1231
     43  CA        24.7230   20.5950   44.1570 C.3   446  ALA446      0.1694
     44  C         24.8740   21.0960   42.7300 C.2   446  ALA446      0.2591
     45  O         23.8900   21.3160   42.0210 O.2   446  ALA446     -0.2718
     46  CB        24.9680   21.7360   45.1400 C.3   446  ALA446      0.0304
     47  N         26.1260   21.2670   42.3190 N.am  447  LEU447     -0.1980
     48  CA        26.4380   21.7280   40.9810 C.3   447  LEU447      0.1596
     49  C         27.3690   20.7350   40.3240 C.2   447  LEU447      0.2287
     50  O         28.4990   20.5410   40.7660 O.2   447  LEU447     -0.2864
     51  CB        27.1030   23.1090   41.0230 C.3   447  LEU447      0.0297
     52  CG        27.5320   23.8120   39.7190 C.3   447  LEU447      0.0022
     53  CD1       28.7690   23.1600   39.1620 C.3   447  LEU447      0.0001
     54  CD2       26.3970   23.7840   38.6950 C.3   447  LEU447      0.0001
     55  N         28.9990   20.0920   36.7280 N.3   449  ALA449     -0.1231
     56  CA        29.2100   20.7030   35.4260 C.3   449  ALA449      0.1694
     57  C         30.4590   20.1880   34.7490 C.2   449  ALA449      0.2591
     58  O         31.2770   19.5170   35.3710 O.2   449  ALA449     -0.2718
     59  CB        29.2930   22.2080   35.5740 C.3   449  ALA449      0.0304
     60  N         30.5960   20.5080   33.4660 N.am  450  GLU450     -0.1979
     61  CA        31.7570   20.0960   32.6860 C.3   450  GLU450      0.1602
     62  C         31.8610   20.9090   31.4180 C.2   450  GLU450      0.2287
     63  O         30.8560   21.3410   30.8500 O.2   450  GLU450     -0.2864
     64  CB        31.6800   18.6140   32.3060 C.3   450  GLU450      0.0415
     65  CG        30.5050   18.2770   31.4060 C.3   450  GLU450      0.1163
     66  CD        30.5160   16.8300   30.9640 C.2   450  GLU450      0.3649
     67  OE1       30.8620   15.9770   31.8100 O.co2 450  GLU450     -0.2457
     68  OE2       30.1760   16.5450   29.7880 O.co2 450  GLU450     -0.2457
     69  N         29.8680   21.2360   26.4330 N.3   483  THR483     -0.1218
     70  CA        29.6360   21.4840   27.8560 C.3   483  THR483      0.1862
     71  C         28.2220   21.1510   28.3180 C.2   483  THR483      0.2287
     72  O         27.3010   21.0150   27.5110 O.2   483  THR483     -0.2866
     73  CB        29.9150   22.9610   28.2260 C.3   483  THR483      0.1770
     74  OG1       29.5760   23.1740   29.6000 O.3   483  THR483     -0.2211
     75  CG2       29.0910   23.9090   27.3530 C.3   483  THR483      0.0375
     76  N         21.9130   21.5370   38.2030 N.3   487  TYR487     -0.1241
     77  CA        21.9720   22.2320   39.4850 C.3   487  TYR487      0.1605
     78  C         20.7050   22.0470   40.3430 C.2   487  TYR487      0.2264
     79  O         19.5850   22.0600   39.8280 O.2   487  TYR487     -0.2867
     80  CB        22.2410   23.7230   39.2200 C.3   487  TYR487      0.0534
     81  CG        22.5580   24.5430   40.4540 C.ar  487  TYR487     -0.0201
     82  CD1       23.5620   24.1470   41.3420 C.ar  487  TYR487     -0.0009
     83  CD2       21.8630   25.7210   40.7320 C.ar  487  TYR487     -0.0009
     84  CE1       23.8650   24.8970   42.4770 C.ar  487  TYR487      0.0417
     85  CE2       22.1640   26.4850   41.8710 C.ar  487  TYR487      0.0417
     86  CZ        23.1630   26.0630   42.7370 C.ar  487  TYR487      0.1957
     87  OH        23.4520   26.7940   43.8670 O.3   487  TYR487     -0.2866
@<TRIPOS>BOND
     1    69    70    1
     2    75    73    1
     3    72    71    2
     4    70    73    1
     5    70    71    1
     6    73    74    1
     7    68    66   ar
     8    63    62    2
     9    66    65    1
    10    66    67   ar
    11    65    64    1
    12    62    61    1
    13    15    16    1
    14    64    61    1
    15    18    17    2
    16    61    60    1
    17    21    19    1
    18    16    17    1
    19    16    19    1
    20    60    57   am
    21    19    20    1
    22    57    58    2
    23    57    56    1
    24    56    59    1
    25    56    55    1
    26    22    23    1
    27     9     7   ar
    28     9    10   ar
    29    25    24    2
    30    12    10   ar
    31    12    14   ar
    32    23    26    1
    33    23    24    1
    34    76    77    1
    35    26    27    1
    36     7     6   ar
    37    10     8   ar
    38    54    52    1
    39    14    13   ar
    40    53    52    1
    41    80    77    1
    42    80    81    1
    43    77    78    1
    44     3     4    2
    45     3     2    1
    46     6     8   ar
    47     6     5    1
    48    27    28   ar
    49    27    29   ar
    50     8    11   ar
    51    52    51    1
    52    79    78    2
    53     2     5    1
    54     2     1    1
    55    28    30   ar
    56    29    31   ar
    57    49    50    2
    58    49    48    1
    59    81    83   ar
    60    81    82   ar
    61    13    11   ar
    62    83    85   ar
    63    48    51    1
    64    48    47    1
    65    82    84   ar
    66    31    32   ar
    67    30    32   ar
    68    85    86   ar
    69    45    44    2
    70    32    33    1
    71    47    44   am
    72    84    86   ar
    73    44    43    1
    74    86    87    1
    75    34    35    1
    76    40    39   ar
    77    43    42    1
    78    43    46    1
    79    39    38    1
    80    39    41   ar
    81    35    38    1
    82    35    36    1
    83    36    37    2
