@<TRIPOS>MOLECULE
tmp/1kmqA00.pdb
 173 169 0 0 0
SMALL
GASTEIGER

@<TRIPOS>ATOM
      1  N          6.5580   12.1640   -2.2430 N.3    11  GLY11      -0.1210
      2  CA         6.9880   10.9780   -2.9530 C.3    11  GLY11       0.1956
      3  C          8.1520   11.2560   -3.8840 C.2    11  GLY11       0.2612
      4  O          8.2070   12.2720   -4.5830 O.2    11  GLY11      -0.2717
      5  N          9.0580   10.2840   -3.8840 N.am   12  ALA12      -0.1965
      6  CA        10.2360   10.2290   -4.7380 C.3    12  ALA12       0.1728
      7  C         11.2130   11.3530   -4.4330 C.2    12  ALA12       0.2616
      8  O         12.1080   11.6060   -5.2200 O.2    12  ALA12      -0.2715
      9  CB         9.8520   10.2350   -6.2150 C.3    12  ALA12       0.0334
     10  N         11.0830   12.0210   -3.2890 N.am   13  CYS13      -0.1954
     11  CA        12.0410   13.0950   -3.0080 C.3    13  CYS13       0.1843
     12  C         13.3860   12.6660   -2.4200 C.2    13  CYS13       0.2626
     13  O         14.2640   13.4900   -2.1760 O.2    13  CYS13      -0.2714
     14  CB        11.4180   14.1790   -2.1220 C.3    13  CYS13       0.0997
     15  SG        11.3580   13.8400   -0.3500 S.3    13  CYS13      -0.0797
     16  N         13.6140   11.3690   -2.2460 N.am   14  GLY14      -0.1940
     17  CA        14.8660   10.7300   -1.8890 C.3    14  GLY14       0.2014
     18  C         15.0090   10.2080   -0.4710 C.2    14  GLY14       0.2639
     19  O         16.1330    9.9630   -0.0250 O.2    14  GLY14      -0.2714
     20  N         13.8910   10.0720    0.2350 N.am   15  LYS15      -0.1963
     21  CA        13.9620    9.6530    1.6370 C.3    15  LYS15       0.1728
     22  C         14.6450    8.3030    1.8620 C.2    15  LYS15       0.2617
     23  O         15.5510    8.1500    2.6790 O.2    15  LYS15      -0.2715
     24  CB        12.5620    9.5950    2.2470 C.3    15  LYS15       0.0311
     25  CG        11.8180   10.9170    2.2070 C.3    15  LYS15       0.0038
     26  CD        10.4260   10.8900    2.8070 C.3    15  LYS15       0.0206
     27  CE         9.4080    9.9990    2.1120 C.3    15  LYS15       0.1093
     28  NZ         9.1310   10.3870    0.6810 N.3    15  LYS15      -0.1314
     29  N         14.1540    7.3010    1.1420 N.am   16  THR16      -0.1937
     30  CA        14.6940    5.9580    1.3060 C.3    16  THR16       0.2028
     31  C         16.1850    5.8730    0.9530 C.2    16  THR16       0.2642
     32  O         16.9890    5.2930    1.6860 O.2    16  THR16      -0.2714
     33  CB        13.8740    4.9790    0.4680 C.3    16  THR16       0.1808
     34  OG1       12.5500    4.9270    1.0040 O.3    16  THR16      -0.2208
     35  CG2       14.4670    3.5770    0.5280 C.3    16  THR16       0.0379
     36  N         16.5480    6.4900   -0.1660 N.am   17  CYS17      -0.1967
     37  CA        17.9410    6.4970   -0.6180 C.3    17  CYS17       0.1712
     38  C         18.8120    7.1540    0.4480 C.2    17  CYS17       0.2296
     39  O         19.9190    6.6850    0.6980 O.2    17  CYS17      -0.2864
     40  CB        18.1070    7.1640   -1.9790 C.3    17  CYS17       0.0983
     41  SG        17.4960    6.0770   -3.2870 S.3    17  CYS17      -0.0798
     42  N         23.4810    2.2030   -2.7480 N.3    27  PHE27      -0.1228
     43  CA        22.5250    3.1300   -3.3510 C.3    27  PHE27       0.1721
     44  C         21.5840    2.2530   -4.1660 C.2    27  PHE27       0.2437
     45  O         21.9630    1.7480   -5.2250 O.2    27  PHE27      -0.2733
     46  CB        23.1840    4.1940   -4.2390 C.3    27  PHE27       0.0547
     47  CG        22.2990    5.3240   -4.7260 C.ar   27  PHE27      -0.0202
     48  CD1       21.8820    6.3720   -3.9210 C.ar   27  PHE27      -0.0042
     49  CD2       21.8660    5.3970   -6.0380 C.ar   27  PHE27      -0.0042
     50  CE1       21.0870    7.4060   -4.3770 C.ar   27  PHE27      -0.0003
     51  CE2       21.0550    6.4340   -6.5010 C.ar   27  PHE27      -0.0003
     52  CZ        20.6420    7.4720   -5.6750 C.ar   27  PHE27      -0.0000
     53  N         20.3690    2.0790   -3.6590 N.am   28  PRO28      -0.2718
     54  CA        19.3580    1.2350   -4.3010 C.3    28  PRO28       0.1535
     55  C         19.2180    1.4600   -5.8050 C.2    28  PRO28       0.2598
     56  O         19.1690    2.5910   -6.2950 O.2    28  PRO28      -0.2715
     57  CB        18.0740    1.6680   -3.5910 C.3    28  PRO28       0.0310
     58  CG        18.5280    2.0100   -2.2240 C.3    28  PRO28       0.0237
     59  CD        19.8570    2.6760   -2.4130 C.3    28  PRO28       0.0939
     60  N         19.1590    0.3400   -6.5180 N.am   29  GLU29      -0.1978
     61  CA        19.0770    0.2940   -7.9760 C.3    29  GLU29       0.1602
     62  C         17.7040    0.6450   -8.5600 C.2    29  GLU29       0.2287
     63  O         17.6120    1.4500   -9.4860 O.2    29  GLU29      -0.2864
     64  CB        19.5610   -1.0760   -8.4470 C.3    29  GLU29       0.0415
     65  CG        20.9180   -1.5010   -7.8790 C.3    29  GLU29       0.1163
     66  CD        22.0890   -0.6510   -8.3700 C.2    29  GLU29       0.3649
     67  OE1       21.9040    0.1830   -9.2890 O.co2  29  GLU29      -0.2457
     68  OE2       23.2090   -0.8400   -7.8330 O.co2  29  GLU29      -0.2457
     69  N         13.8030    2.2960   -8.1320 N.3    31  TYR31      -0.1227
     70  CA        12.8090    3.0940   -7.4000 C.3    31  TYR31       0.1736
     71  C         11.4720    2.4000   -7.2300 C.2    31  TYR31       0.2595
     72  O         10.6930    2.1680   -8.1600 O.2    31  TYR31      -0.2718
     73  CB        12.3580    4.4760   -7.8980 C.3    31  TYR31       0.0548
     74  CG        11.1720    5.1850   -7.2280 C.ar   31  TYR31      -0.0200
     75  CD1       11.0380    5.2980   -5.8470 C.ar   31  TYR31      -0.0009
     76  CD2       10.1630    5.8090   -7.9570 C.ar   31  TYR31      -0.0009
     77  CE1        9.9500    5.9530   -5.2540 C.ar   31  TYR31       0.0417
     78  CE2        9.0730    6.4640   -7.3770 C.ar   31  TYR31       0.0417
     79  CZ         8.9500    6.5450   -5.9930 C.ar   31  TYR31       0.1957
     80  OH         7.9150    7.1440   -5.3020 O.3    31  TYR31      -0.2866
     81  N         11.3060    2.1060   -5.9490 N.am   32  VAL32      -0.1966
     82  CA        10.2300    1.3540   -5.3370 C.3    32  VAL32       0.1712
     83  C          9.6020    2.2440   -4.2640 C.2    32  VAL32       0.2458
     84  O         10.2300    2.4730   -3.2300 O.2    32  VAL32      -0.2730
     85  CB        10.7600    0.0720   -4.6720 C.3    32  VAL32       0.0289
     86  CG1        9.6030   -0.6710   -4.0540 C.3    32  VAL32       0.0023
     87  CG2       11.4580   -0.7730   -5.7220 C.3    32  VAL32       0.0023
     88  N          8.3910    2.7460   -4.4730 N.am   33  PRO33      -0.2716
     89  CA         7.7000    3.5280   -3.4470 C.3    33  PRO33       0.1536
     90  C          7.5980    2.7440   -2.1530 C.2    33  PRO33       0.2599
     91  O          7.2580    1.5610   -2.1180 O.2    33  PRO33      -0.2715
     92  CB         6.3270    3.8440   -4.0440 C.3    33  PRO33       0.0310
     93  CG         6.5160    3.7610   -5.5060 C.3    33  PRO33       0.0237
     94  CD         7.5350    2.6850   -5.6710 C.3    33  PRO33       0.0939
     95  N          7.9150    3.4310   -1.0630 N.am   34  THR34      -0.1951
     96  CA         7.8080    2.9310    0.2900 C.3    34  THR34       0.1897
     97  C          6.3650    2.8880    0.7580 C.2    34  THR34       0.2313
     98  O          5.5570    3.7840    0.5400 O.2    34  THR34      -0.2863
     99  CB         8.6600    3.8210    1.2060 C.3    34  THR34       0.1794
    100  OG1       10.0110    3.7870    0.7330 O.3    34  THR34      -0.2208
    101  CG2        8.6520    3.3190    2.6140 C.3    34  THR34       0.0378
    102  N          8.9230    6.2680    5.8170 N.3    57  THR57      -0.1218
    103  CA         7.5020    6.4440    5.5740 C.3    57  THR57       0.1862
    104  C          7.2080    6.7170    4.1100 C.2    57  THR57       0.2287
    105  O          8.0790    7.0290    3.3080 O.2    57  THR57      -0.2866
    106  CB         6.8540    7.5610    6.3990 C.3    57  THR57       0.1770
    107  OG1        7.3150    8.8480    5.9650 O.3    57  THR57      -0.2211
    108  CG2        7.1760    7.4720    7.8830 C.3    57  THR57       0.0375
    109  N          5.7850    8.7080    0.9290 N.3    59  GLY59      -0.1210
    110  CA         5.3590    9.9790    0.3760 C.3    59  GLY59       0.1956
    111  C          4.0760    9.8970   -0.4290 C.2    59  GLY59       0.2611
    112  O          3.3570   10.8910   -0.5750 O.2    59  GLY59      -0.2717
    113  N          3.7480    8.7190   -0.9470 N.am   60  LEU60      -0.1979
    114  CA         2.5630    8.5860   -1.7840 C.3    60  LEU60       0.1596
    115  C          1.2650    8.7590   -1.0030 C.2    60  LEU60       0.2287
    116  O          1.1200    8.2050    0.0920 O.2    60  LEU60      -0.2864
    117  CB         2.5690    7.2130   -2.4480 C.3    60  LEU60       0.0297
    118  CG         3.5050    7.0920   -3.6490 C.3    60  LEU60       0.0022
    119  CD1        3.3260    5.7270   -4.3150 C.3    60  LEU60       0.0001
    120  CD2        3.3460    8.2090   -4.6680 C.3    60  LEU60       0.0001
    121  N         17.1740   17.2310   -0.4260 N.3   114  ASN114     -0.1225
    122  CA        17.8110   16.0860   -1.0660 C.3   114  ASN114      0.1785
    123  C         18.1760   16.3620   -2.5160 C.2   114  ASN114      0.2597
    124  O         17.7740   17.3640   -3.1000 O.2   114  ASN114     -0.2718
    125  CB        16.8940   14.8610   -1.0170 C.3   114  ASN114      0.1169
    126  CG        16.6620   14.2570    0.3440 C.2   114  ASN114      0.2627
    127  OD1       15.5650   13.6890    0.5760 O.2   114  ASN114     -0.2716
    128  ND2       17.6300   14.3450    1.2270 N.am  114  ASN114     -0.0877
    129  N         18.9680   15.4450   -3.0600 N.am  115  LYS115     -0.1980
    130  CA        19.3310   15.5110   -4.4750 C.3   115  LYS115      0.1596
    131  C         20.1040   16.7710   -4.8540 C.2   115  LYS115      0.2287
    132  O         19.9410   17.3530   -5.9240 O.2   115  LYS115     -0.2864
    133  CB        18.1200   15.2940   -5.3970 C.3   115  LYS115      0.0298
    134  CG        17.2360   14.1200   -5.0080 C.3   115  LYS115      0.0038
    135  CD        16.2920   13.6670   -6.1220 C.3   115  LYS115      0.0206
    136  CE        15.2250   12.6990   -5.6250 C.3   115  LYS115      0.1093
    137  NZ        14.3240   12.2590   -6.7560 N.3   115  LYS115     -0.1314
    138  N         22.9400   17.0480   -5.8690 N.3   117  ASP117     -0.1225
    139  CA        23.7020   16.8110   -7.0920 C.3   117  ASP117      0.1805
    140  C         22.9550   17.2550   -8.3400 C.2   117  ASP117      0.2597
    141  O         23.5570   17.3930   -9.4030 O.2   117  ASP117     -0.2718
    142  CB        24.0690   15.3250   -7.2180 C.3   117  ASP117      0.1424
    143  CG        22.8370   14.4400   -7.2530 C.2   117  ASP117      0.3668
    144  OD1       22.2230   14.2330   -6.1750 O.co2 117  ASP117     -0.2456
    145  OD2       22.4100   13.9770   -8.3370 O.co2 117  ASP117     -0.2456
    146  N         21.6480   17.4720   -8.2450 N.am  118  LEU118     -0.1979
    147  CA        20.8870   17.9280   -9.4060 C.3   118  LEU118      0.1596
    148  C         20.7660   19.4400   -9.5860 C.2   118  LEU118      0.2287
    149  O         20.2390   19.9310  -10.5870 O.2   118  LEU118     -0.2864
    150  CB        19.4900   17.2910   -9.4050 C.3   118  LEU118      0.0297
    151  CG        19.4950   15.7680   -9.4660 C.3   118  LEU118      0.0022
    152  CD1       18.0900   15.2160   -9.3720 C.3   118  LEU118      0.0001
    153  CD2       20.2030   15.2710  -10.7230 C.3   118  LEU118      0.0001
    154  N         23.2840   14.9740   -0.9290 N.3   157  SER157     -0.1202
    155  CA        23.1020   14.0710   -2.0520 C.3   157  SER157      0.2020
    156  C         23.3440   12.6370   -1.6100 C.2   157  SER157      0.2619
    157  O         24.4760   12.2650   -1.3210 O.2   157  SER157     -0.2717
    158  CB        24.0550   14.3870   -3.2110 C.3   157  SER157      0.2103
    159  OG        23.9330   13.4040   -4.2340 O.3   157  SER157     -0.2182
    160  N         22.3130   11.7960   -1.5960 N.am  158  ALA158     -0.1965
    161  CA        22.5160   10.3810   -1.3460 C.3   158  ALA158      0.1728
    162  C         23.3580    9.7700   -2.4550 C.2   158  ALA158      0.2616
    163  O         24.0900    8.8160   -2.1990 O.2   158  ALA158     -0.2715
    164  CB        21.1640    9.7360   -1.2640 C.3   158  ALA158      0.0334
    165  N         23.2440   10.3090   -3.6640 N.am  159  LYS159     -0.1977
    166  CA        23.9260    9.7360   -4.8150 C.3   159  LYS159      0.1596
    167  C         25.4360    9.8780   -4.6750 C.2   159  LYS159      0.2287
    168  O         26.1700    8.9320   -4.9370 O.2   159  LYS159     -0.2864
    169  CB        23.4800   10.4350   -6.0920 C.3   159  LYS159      0.0298
    170  CG        24.0650    9.8470   -7.3810 C.3   159  LYS159      0.0038
    171  CD        23.7130   10.6420   -8.6210 C.3   159  LYS159      0.0206
    172  CE        24.4570   10.1810   -9.8640 C.3   159  LYS159      0.1093
    173  NZ        23.9500   11.0280  -10.9750 N.3   159  LYS159     -0.1314
@<TRIPOS>BOND
     1   173   172    1
     2   153   151    1
     3   149   148    2
     4   172   171    1
     5   148   147    1
     6    63    62    2
     7   151   150    1
     8   151   152    1
     9   147   150    1
    10   147   146    1
    11   141   140    2
    12    67    66   ar
    13   171   170    1
    14    62    61    1
    15    64    61    1
    16    64    65    1
    17    66    65    1
    18    66    68   ar
    19   140   146   am
    20   140   139    1
    21   145   143   ar
    22    72    71    2
    23    69    70    1
    24    61    60    1
    25    76    78   ar
    26    76    74   ar
    27    73    70    1
    28    73    74    1
    29    70    71    1
    30   170   169    1
    31    78    79   ar
    32   143   142    1
    33   143   144   ar
    34    71    81   am
    35    74    75   ar
    36   142   139    1
    37   139   138    1
    38   137   136    1
    39    60    55   am
    40    51    49   ar
    41    51    52   ar
    42    56    55    2
    43     9     6    1
    44   135   136    1
    45   135   134    1
    46   169   166    1
    47    49    47   ar
    48    79    80    1
    49    79    77   ar
    50    81    82    1
    51   132   131    2
    52    75    77   ar
    53    55    54    1
    54    87    85    1
    55    52    50   ar
    56    94    93    1
    57    94    88    1
    58    93    92    1
    59   133   134    1
    60   133   130    1
    61    82    85    1
    62    82    83    1
    63    45    44    2
    64     8     7    2
    65   168   167    2
    66   131   130    1
    67   166   167    1
    68   166   165    1
    69     6     7    1
    70     6     5    1
    71    47    46    1
    72    47    48   ar
    73    85    86    1
    74   120   118    1
    75     4     3    2
    76   130   129    1
    77    88    83   am
    78    88    89    1
    79     7    10   am
    80    50    48   ar
    81   119   118    1
    82    54    53    1
    83    54    57    1
    84    83    84    2
    85    46    43    1
    86   159   158    1
    87    44    53   am
    88    44    43    1
    89    92    89    1
    90     5     3   am
    91     3     2    1
    92   165   162   am
    93    53    59    1
    94   118   117    1
    95    57    58    1
    96    89    90    1
    97    43    42    1
    98    10    11    1
    99    41    40    1
   100   158   155    1
   101   124   123    2
   102   129   123   am
   103    11    12    1
   104    11    14    1
   105     2     1    1
   106   123   122    1
   107   162   163    2
   108   162   161    1
   109   117   114    1
   110    12    16   am
   111    12    13    2
   112    59    58    1
   113    16    17    1
   114    90    91    2
   115    90    95   am
   116    14    15    1
   117   155   156    1
   118   155   154    1
   119    40    37    1
   120    17    18    1
   121   114   115    1
   122   114   113    1
   123   156   160   am
   124   156   157    2
   125   160   161    1
   126   161   164    1
   127   122   125    1
   128   122   121    1
   129    95    96    1
   130   125   126    1
   131   115   116    2
   132   113   111   am
   133    37    36    1
   134    37    38    1
   135   112   111    2
   136    18    19    2
   137    18    20   am
   138   111   110    1
   139    36    31   am
   140    20    21    1
   141    96    97    1
   142    96    99    1
   143   126   127    2
   144   126   128   am
   145   110   109    1
   146    38    39    2
   147    33    35    1
   148    33    34    1
   149    33    30    1
   150    98    97    2
   151    28    27    1
   152   100    99    1
   153    31    30    1
   154    31    32    2
   155    29    30    1
   156    29    22   am
   157    99   101    1
   158    21    22    1
   159    21    24    1
   160    22    23    2
   161    27    26    1
   162    25    24    1
   163    25    26    1
   164   105   104    2
   165   104   103    1
   166   103   102    1
   167   103   106    1
   168   107   106    1
   169   106   108    1
