@<TRIPOS>MOLECULE
tmp/1kmsA00.pdb
 170 165 0 0 0
SMALL
GASTEIGER

@<TRIPOS>ATOM
      1  N         21.2650   25.0530   30.0370 N.3     6  ILE6       -0.1231
      2  CA        20.1840   24.1110   29.6290 C.3     6  ILE6        0.1692
      3  C         18.8870   24.8940   29.5480 C.2     6  ILE6        0.2592
      4  O         18.5950   25.6940   30.4560 O.2     6  ILE6       -0.2718
      5  CB        20.1270   22.8890   30.5690 C.3     6  ILE6        0.0266
      6  CG1       19.0840   21.8680   30.0740 C.3     6  ILE6        0.0019
      7  CG2       19.8430   23.2750   32.0130 C.3     6  ILE6        0.0020
      8  CD1       19.3100   20.4650   30.6520 C.3     6  ILE6        0.0001
      9  N         18.1450   24.6880   28.4800 N.am    7  VAL7       -0.1966
     10  CA        16.9230   25.4090   28.1750 C.3     7  VAL7        0.1727
     11  C         16.0090   24.5380   27.3350 C.2     7  VAL7        0.2616
     12  O         16.5070   23.6780   26.5930 O.2     7  VAL7       -0.2715
     13  CB        17.2730   26.7170   27.4300 C.3     7  VAL7        0.0290
     14  CG1       17.8000   26.4600   26.0140 C.3     7  VAL7        0.0023
     15  CG2       16.1020   27.7110   27.4030 C.3     7  VAL7        0.0023
     16  N         14.7320   24.8460   27.3730 N.am    8  ALA8       -0.1977
     17  CA        13.7440   24.3480   26.4220 C.3     8  ALA8        0.1597
     18  C         13.1600   25.5820   25.6830 C.2     8  ALA8        0.2287
     19  O         12.7900   26.5350   26.3700 O.2     8  ALA8       -0.2864
     20  CB        12.6610   23.5430   27.0790 C.3     8  ALA8        0.0319
     21  N          5.2350   31.5370   33.6990 N.3    20  ASP20      -0.1225
     22  CA         5.1710   30.0810   33.5850 C.3    20  ASP20       0.1805
     23  C          5.8150   29.6890   32.2420 C.2    20  ASP20       0.2597
     24  O          6.2690   30.5260   31.4700 O.2    20  ASP20      -0.2718
     25  CB         3.7520   29.5890   33.7670 C.3    20  ASP20       0.1424
     26  CG         3.2950   29.6860   35.2220 C.2    20  ASP20       0.3668
     27  OD1        3.9490   29.2280   36.1890 O.co2  20  ASP20      -0.2456
     28  OD2        2.1950   30.2330   35.3900 O.co2  20  ASP20      -0.2456
     29  N          5.7930   28.4020   31.9640 N.am   21  LEU21      -0.1979
     30  CA         6.2240   27.9210   30.6570 C.3    21  LEU21       0.1596
     31  C          5.2060   28.2380   29.5630 C.2    21  LEU21       0.2287
     32  O          4.0100   28.3410   29.8940 O.2    21  LEU21      -0.2864
     33  CB         6.4790   26.4030   30.7150 C.3    21  LEU21       0.0297
     34  CG         7.5800   26.0020   31.6890 C.3    21  LEU21       0.0022
     35  CD1        7.4940   24.4960   31.9130 C.3    21  LEU21       0.0001
     36  CD2        8.9600   26.4990   31.2560 C.3    21  LEU21       0.0001
     37  N          4.2950   26.2940   27.1310 N.3    23  TRP23      -0.1241
     38  CA         3.6380   25.0490   26.8200 C.3    23  TRP23       0.1605
     39  C          3.1010   24.4210   28.0790 C.2    23  TRP23       0.2264
     40  O          3.5640   24.7340   29.1800 O.2    23  TRP23      -0.2867
     41  CB         4.6100   24.0560   26.1560 C.3    23  TRP23       0.0550
     42  CG         6.0000   24.1160   26.7820 C.ar   23  TRP23       0.0003
     43  CD1        6.4430   23.3830   27.8300 C.ar   23  TRP23       0.0946
     44  CD2        7.1000   24.9470   26.3920 C.ar   23  TRP23       0.0152
     45  NE1        7.7640   23.6920   28.1320 N.ar   23  TRP23      -0.2442
     46  CE2        8.1670   24.6540   27.2550 C.ar   23  TRP23       0.0810
     47  CE3        7.2590   25.9010   25.3620 C.ar   23  TRP23       0.0012
     48  CZ2        9.3770   25.3270   27.1110 C.ar   23  TRP23       0.0191
     49  CZ3        8.4640   26.5720   25.2290 C.ar   23  TRP23       0.0001
     50  CH2        9.4960   26.2460   26.1220 C.ar   23  TRP23       0.0015
     51  N          2.8620   21.5050   30.9430 N.3    25  PRO25      -0.2116
     52  CA         4.0180   20.8110   31.5020 C.3    25  PRO25       0.1372
     53  C          4.2340   19.5060   30.7480 C.2    25  PRO25       0.2244
     54  O          3.2910   18.7650   30.4840 O.2    25  PRO25      -0.2868
     55  CB         3.6570   20.4920   32.9480 C.3    25  PRO25       0.0268
     56  CG         2.2020   20.7690   33.0570 C.3    25  PRO25       0.0207
     57  CD         1.7920   21.7110   31.9620 C.3    25  PRO25       0.0892
     58  N         10.1910   15.9730   29.6990 N.3    29  GLU29      -0.1231
     59  CA        11.1640   17.0820   29.4960 C.3    29  GLU29       0.1699
     60  C         11.7620   17.4980   30.8180 C.2    29  GLU29       0.2592
     61  O         12.9770   17.6740   30.9590 O.2    29  GLU29      -0.2718
     62  CB        10.5560   18.2310   28.6990 C.3    29  GLU29       0.0402
     63  CG        11.5270   18.9980   27.8290 C.3    29  GLU29       0.1161
     64  CD        12.4990   19.9060   28.5860 C.2    29  GLU29       0.3649
     65  OE1       13.7010   19.9080   28.2030 O.co2  29  GLU29      -0.2457
     66  OE2       12.0780   20.6270   29.5180 O.co2  29  GLU29      -0.2457
     67  N         10.9450   17.5730   31.8570 N.am   30  PHE30      -0.1976
     68  CA        11.4300   17.8190   33.1980 C.3    30  PHE30       0.1639
     69  C         12.3850   16.7050   33.6320 C.2    30  PHE30       0.2290
     70  O         13.4170   16.9950   34.2790 O.2    30  PHE30      -0.2864
     71  CB        10.3040   17.9070   34.2300 C.3    30  PHE30       0.0560
     72  CG         9.3560   19.0710   34.0710 C.ar   30  PHE30      -0.0200
     73  CD1        8.0650   18.9560   34.5530 C.ar   30  PHE30      -0.0042
     74  CD2        9.6750   20.2840   33.5300 C.ar   30  PHE30      -0.0042
     75  CE1        7.1850   20.0140   34.4620 C.ar   30  PHE30      -0.0003
     76  CE2        8.7820   21.3320   33.3900 C.ar   30  PHE30      -0.0003
     77  CZ         7.5080   21.2170   33.8950 C.ar   30  PHE30      -0.0000
     78  N         14.3620   14.8960   31.7440 N.3    32  TYR32      -0.1227
     79  CA        15.6320   15.1280   31.0470 C.3    32  TYR32       0.1736
     80  C         16.4130   16.2310   31.7480 C.2    32  TYR32       0.2595
     81  O         17.5890   16.0850   32.0520 O.2    32  TYR32      -0.2718
     82  CB        15.3570   15.5170   29.6130 C.3    32  TYR32       0.0548
     83  CG        16.6020   15.9070   28.8530 C.ar   32  TYR32      -0.0200
     84  CD1       16.8740   17.2330   28.5640 C.ar   32  TYR32      -0.0009
     85  CD2       17.5250   14.9550   28.4390 C.ar   32  TYR32      -0.0009
     86  CE1       18.0120   17.5780   27.8550 C.ar   32  TYR32       0.0417
     87  CE2       18.6290   15.3050   27.7280 C.ar   32  TYR32       0.0417
     88  CZ        18.8940   16.6170   27.4420 C.ar   32  TYR32       0.1957
     89  OH        20.0350   16.9090   26.7090 O.3    32  TYR32      -0.2866
     90  N         15.7510   17.3750   32.0260 N.am   33  PHE33      -0.1976
     91  CA        16.3950   18.4620   32.7480 C.3    33  PHE33       0.1639
     92  C         16.9620   17.9720   34.0770 C.2    33  PHE33       0.2290
     93  O         18.0970   18.3120   34.4410 O.2    33  PHE33      -0.2864
     94  CB        15.3230   19.5470   32.9520 C.3    33  PHE33       0.0560
     95  CG        15.7480   20.6130   33.9610 C.ar   33  PHE33      -0.0200
     96  CD1       16.6480   21.6320   33.6100 C.ar   33  PHE33      -0.0042
     97  CD2       15.2740   20.6090   35.2660 C.ar   33  PHE33      -0.0042
     98  CE1       17.0110   22.5680   34.5290 C.ar   33  PHE33      -0.0003
     99  CE2       15.6730   21.5310   36.1980 C.ar   33  PHE33      -0.0003
    100  CZ        16.5650   22.5370   35.8210 C.ar   33  PHE33      -0.0000
    101  N         12.8210   32.6560   37.6550 N.3    55  THR55      -0.1218
    102  CA        12.8820   31.2130   37.4170 C.3    55  THR55       0.1862
    103  C         12.6780   30.4500   38.7090 C.2    55  THR55       0.2287
    104  O         11.9070   29.4860   38.7920 O.2    55  THR55      -0.2866
    105  CB        14.2150   30.8290   36.7370 C.3    55  THR55       0.1770
    106  OG1       14.2230   31.3800   35.4120 O.3    55  THR55      -0.2211
    107  CG2       14.3760   29.3410   36.6100 C.3    55  THR55       0.0375
    108  N          9.1150   30.3820   39.7140 N.3    58  SER58      -0.1202
    109  CA         8.2940   29.6960   38.7230 C.3    58  SER58       0.2020
    110  C          8.2880   28.1860   38.9440 C.2    58  SER58       0.2619
    111  O          7.4690   27.4780   38.3890 O.2    58  SER58      -0.2717
    112  CB         8.7470   30.0350   37.2850 C.3    58  SER58       0.2103
    113  OG         9.9220   29.2780   36.9320 O.3    58  SER58      -0.2182
    114  N          9.2320   27.6750   39.7410 N.am   59  ILE59      -0.1966
    115  CA         9.3000   26.2260   40.0340 C.3    59  ILE59       0.1712
    116  C          8.3160   25.9590   41.1580 C.2    59  ILE59       0.2458
    117  O          8.3050   26.7070   42.1610 O.2    59  ILE59      -0.2730
    118  CB        10.7310   25.7980   40.4130 C.3    59  ILE59       0.0289
    119  CG1       11.7170   26.0810   39.2870 C.3    59  ILE59       0.0022
    120  CG2       10.7150   24.3450   40.8320 C.3    59  ILE59       0.0023
    121  CD1       13.1600   26.0420   39.7040 C.3    59  ILE59       0.0001
    122  N          7.4800   24.9350   41.0680 N.am   60  PRO60      -0.2727
    123  CA         6.5570   24.6150   42.1620 C.3    60  PRO60       0.1402
    124  C          7.2980   24.4470   43.4650 C.2    60  PRO60       0.2269
    125  O          8.3750   23.8410   43.5110 O.2    60  PRO60      -0.2865
    126  CB         5.9040   23.2830   41.7450 C.3    60  PRO60       0.0296
    127  CG         5.9920   23.2930   40.2780 C.3    60  PRO60       0.0237
    128  CD         7.3050   23.9800   39.9560 C.3    60  PRO60       0.0939
    129  N          9.0110   21.1770   44.4650 N.3    63  ASN63      -0.1240
    130  CA        10.2670   20.8670   43.7950 C.3    63  ASN63       0.1653
    131  C         11.4000   21.8290   44.1470 C.2    63  ASN63       0.2266
    132  O         12.4330   21.8400   43.4680 O.2    63  ASN63      -0.2867
    133  CB        10.0950   20.8530   42.2890 C.3    63  ASN63       0.1155
    134  CG         9.0140   19.9240   41.8060 C.2    63  ASN63       0.2627
    135  OD1        8.1100   20.3370   41.0730 O.2    63  ASN63      -0.2716
    136  ND2        9.0700   18.6850   42.2160 N.am   63  ASN63      -0.0877
    137  N         15.6530   22.3980   43.9810 N.3    66  LEU66      -0.1245
    138  CA        15.8130   21.2700   43.0820 C.3    66  LEU66       0.1561
    139  C         16.6670   20.2260   43.7650 C.2    66  LEU66       0.2260
    140  O         17.8040   20.5050   44.1790 O.2    66  LEU66      -0.2867
    141  CB        16.4030   21.7750   41.7470 C.3    66  LEU66       0.0270
    142  CG        15.4660   22.6850   40.9320 C.3    66  LEU66       0.0019
    143  CD1       16.2770   23.2610   39.7680 C.3    66  LEU66       0.0001
    144  CD2       14.2660   21.9540   40.4190 C.3    66  LEU66       0.0001
    145  N         20.3640   27.6090   34.3470 N.3   114  VAL114     -0.1245
    146  CA        19.0340   27.0420   34.0720 C.3   114  VAL114      0.1561
    147  C         17.9580   28.0900   33.8070 C.2   114  VAL114      0.2260
    148  O         16.7870   27.7730   33.6920 O.2   114  VAL114     -0.2867
    149  CB        18.6140   26.0580   35.1980 C.3   114  VAL114      0.0252
    150  CG1       19.6790   24.9990   35.4160 C.3   114  VAL114      0.0019
    151  CG2       18.2270   26.7630   36.4990 C.3   114  VAL114      0.0019
    152  N         21.0830   33.4550   30.7710 N.3   120  TYR120     -0.1241
    153  CA        21.6730   32.8460   29.5980 C.3   120  TYR120      0.1605
    154  C         22.5560   33.8200   28.8330 C.2   120  TYR120      0.2264
    155  O         23.6380   33.4770   28.3590 O.2   120  TYR120     -0.2867
    156  CB        20.5660   32.3490   28.6680 C.3   120  TYR120      0.0534
    157  CG        19.7600   31.2070   29.1860 C.ar  120  TYR120     -0.0201
    158  CD1       18.3510   31.2960   29.1500 C.ar  120  TYR120     -0.0009
    159  CD2       20.2970   30.0310   29.6960 C.ar  120  TYR120     -0.0009
    160  CE1       17.5720   30.2580   29.5940 C.ar  120  TYR120      0.0417
    161  CE2       19.5320   28.9750   30.1420 C.ar  120  TYR120      0.0417
    162  CZ        18.1470   29.0810   30.1060 C.ar  120  TYR120      0.1957
    163  OH        17.3500   28.0750   30.5180 O.3   120  TYR120     -0.2866
    164  N         16.5110   21.9630   24.2890 N.3   135  THR135     -0.1218
    165  CA        15.3550   21.1730   23.9010 C.3   135  THR135      0.1862
    166  C         14.5550   21.9960   22.9100 C.2   135  THR135      0.2287
    167  O         14.0720   23.0770   23.2680 O.2   135  THR135     -0.2866
    168  CB        14.4880   20.7680   25.0760 C.3   135  THR135      0.1770
    169  OG1       15.2650   19.9900   25.9950 O.3   135  THR135     -0.2211
    170  CG2       13.3080   19.9320   24.5610 C.3   135  THR135      0.0375
@<TRIPOS>BOND
     1   166   167    2
     2   166   165    1
     3   165   164    1
     4   165   168    1
     5   170   168    1
     6   168   169    1
     7    49    47   ar
     8    49    50   ar
     9    47    44   ar
    10    18    19    2
    11    18    17    1
    12    14    13    1
    13    50    48   ar
    14    41    42    1
    15    41    38    1
    16    44    42   ar
    17    44    46   ar
    18    17    20    1
    19    17    16    1
    20    12    11    2
    21    89    88    1
    22    42    43   ar
    23    38    37    1
    24    38    39    1
    25    48    46   ar
    26    46    45   ar
    27    11    16   am
    28    11    10    1
    29    15    13    1
    30    13    10    1
    31    88    87   ar
    32    88    86   ar
    33    87    85   ar
    34    63    64    1
    35    63    62    1
    36    43    45   ar
    37    86    84   ar
    38    39    40    2
    39    10     9    1
    40    65    64   ar
    41   155   154    2
    42    85    83   ar
    43     9     3   am
    44    84    83   ar
    45    64    66   ar
    46   156   157    1
    47   156   153    1
    48    62    59    1
    49   154   153    1
    50    83    82    1
    51   158   157   ar
    52   158   160   ar
    53   157   159   ar
    54    59    58    1
    55    59    60    1
    56     3     2    1
    57     3     4    2
    58    31    32    2
    59    31    30    1
    60   160   162   ar
    61   153   152    1
    62    82    79    1
    63     2     1    1
    64     2     5    1
    65   159   161   ar
    66     6     5    1
    67     6     8    1
    68   162   161   ar
    69   162   163    1
    70    54    53    2
    71     5     7    1
    72    30    33    1
    73    30    29    1
    74    33    34    1
    75    53    52    1
    76    60    61    2
    77    60    67   am
    78    51    52    1
    79    51    57    1
    80    79    78    1
    81    79    80    1
    82    36    34    1
    83    24    23    2
    84    52    55    1
    85    34    35    1
    86    80    90   am
    87    80    81    2
    88    67    68    1
    89    57    56    1
    90    29    23   am
    91    90    91    1
    92    23    22    1
    93    91    94    1
    94    91    92    1
    95    55    56    1
    96    94    95    1
    97    68    69    1
    98    68    71    1
    99    76    74   ar
   100    76    77   ar
   101    74    72   ar
   102    22    21    1
   103    22    25    1
   104    96    95   ar
   105    96    98   ar
   106    69    70    2
   107   148   147    2
   108    25    26    1
   109   147   146    1
   110    77    75   ar
   111    95    97   ar
   112    72    71    1
   113    72    73   ar
   114   146   145    1
   115   146   149    1
   116    92    93    2
   117    75    73   ar
   118    98   100   ar
   119   149   150    1
   120   149   151    1
   121    26    28   ar
   122    26    27   ar
   123    97    99   ar
   124   106   105    1
   125   100    99   ar
   126   107   105    1
   127   105   102    1
   128   113   112    1
   129   112   109    1
   130   102   101    1
   131   102   103    1
   132   111   110    2
   133   103   104    2
   134   109   110    1
   135   109   108    1
   136   110   114   am
   137   119   121    1
   138   119   118    1
   139   114   115    1
   140   143   142    1
   141   128   127    1
   142   128   122    1
   143   115   118    1
   144   115   116    1
   145   127   126    1
   146   118   120    1
   147   144   142    1
   148   142   141    1
   149   122   116   am
   150   122   123    1
   151   135   134    2
   152   116   117    2
   153   126   123    1
   154   141   138    1
   155   134   136   am
   156   134   133    1
   157   123   124    1
   158   133   130    1
   159   138   139    1
   160   138   137    1
   161   124   125    2
   162   132   131    2
   163   139   140    2
   164   130   131    1
   165   130   129    1
