@<TRIPOS>MOLECULE
tmp/1kmvA00.pdb
 162 157 0 0 0
SMALL
GASTEIGER

@<TRIPOS>ATOM
      1  N         21.0090   24.9250   30.0660 N.3     7  ILE7       -0.1231
      2  CA        19.9370   24.0060   29.6530 C.3     7  ILE7        0.1692
      3  C         18.6520   24.7990   29.5620 C.2     7  ILE7        0.2592
      4  O         18.3500   25.6010   30.4600 O.2     7  ILE7       -0.2718
      5  CB        19.8630   22.7740   30.5860 C.3     7  ILE7        0.0266
      6  CG1       18.8220   21.7820   30.0640 C.3     7  ILE7        0.0019
      7  CG2       19.6250   23.1650   32.0310 C.3     7  ILE7        0.0020
      8  CD1       18.9990   20.3780   30.6600 C.3     7  ILE7        0.0001
      9  N         17.9320   24.6100   28.4670 N.am    8  VAL8       -0.1966
     10  CA        16.7220   25.3550   28.1520 C.3     8  VAL8        0.1727
     11  C         15.8090   24.4890   27.3210 C.2     8  VAL8        0.2616
     12  O         16.2640   23.6100   26.5820 O.2     8  VAL8       -0.2715
     13  CB        17.0840   26.6390   27.3890 C.3     8  VAL8        0.0290
     14  CG1       17.6080   26.3270   25.9900 C.3     8  VAL8        0.0023
     15  CG2       15.9300   27.6210   27.3260 C.3     8  VAL8        0.0023
     16  N         14.5240   24.7810   27.3860 N.am    9  ALA9       -0.1977
     17  CA        13.5100   24.3150   26.4430 C.3     9  ALA9        0.1597
     18  C         12.9640   25.5480   25.7640 C.2     9  ALA9        0.2287
     19  O         12.6090   26.5390   26.4320 O.2     9  ALA9       -0.2864
     20  CB        12.4240   23.5150   27.1470 C.3     9  ALA9        0.0319
     21  N          5.5800   28.5670   31.9840 N.3    22  LEU22      -0.1245
     22  CA         5.9880   28.0640   30.6660 C.3    22  LEU22       0.1561
     23  C          5.0110   28.4330   29.5740 C.2    22  LEU22       0.2260
     24  O          3.8180   28.5840   29.9040 O.2    22  LEU22      -0.2867
     25  CB         6.1100   26.5350   30.6780 C.3    22  LEU22       0.0270
     26  CG         7.1690   26.0400   31.6490 C.3    22  LEU22       0.0019
     27  CD1        7.0560   24.5120   31.8460 C.3    22  LEU22       0.0001
     28  CD2        8.5710   26.4010   31.1920 C.3    22  LEU22       0.0001
     29  N          4.0890   26.5550   27.1580 N.3    24  TRP24      -0.1241
     30  CA         3.4260   25.2920   26.8170 C.3    24  TRP24       0.1605
     31  C          2.9110   24.6370   28.0640 C.2    24  TRP24       0.2264
     32  O          3.3470   24.9050   29.1930 O.2    24  TRP24      -0.2867
     33  CB         4.4450   24.4080   26.0770 C.3    24  TRP24       0.0550
     34  CG         5.7900   24.3370   26.7390 C.ar   24  TRP24       0.0003
     35  CD1        6.2520   23.5310   27.7290 C.ar   24  TRP24       0.0946
     36  CD2        6.8730   25.1810   26.3490 C.ar   24  TRP24       0.0152
     37  NE1        7.5910   23.8330   28.0140 N.ar   24  TRP24      -0.2442
     38  CE2        7.9600   24.8380   27.1770 C.ar   24  TRP24       0.0810
     39  CE3        7.0460   26.2010   25.4040 C.ar   24  TRP24       0.0012
     40  CZ2        9.1870   25.4730   27.0780 C.ar   24  TRP24       0.0191
     41  CZ3        8.2550   26.8270   25.3220 C.ar   24  TRP24       0.0001
     42  CH2        9.3310   26.4760   26.1370 C.ar   24  TRP24       0.0015
     43  N          2.6440   21.6850   30.8740 N.3    26  PRO26      -0.2116
     44  CA         3.7200   20.9140   31.4540 C.3    26  PRO26       0.1372
     45  C          3.9580   19.6300   30.6770 C.2    26  PRO26       0.2244
     46  O          3.0910   18.8480   30.3200 O.2    26  PRO26      -0.2868
     47  CB         3.2590   20.5620   32.8520 C.3    26  PRO26       0.0268
     48  CG         1.8450   20.9330   32.8730 C.3    26  PRO26       0.0207
     49  CD         1.5230   21.9310   31.7960 C.3    26  PRO26       0.0892
     50  N          9.9240   15.8940   29.5850 N.3    30  GLU30      -0.1231
     51  CA        10.9390   16.9400   29.3650 C.3    30  GLU30       0.1699
     52  C         11.5330   17.3850   30.6960 C.2    30  GLU30       0.2592
     53  O         12.7490   17.5690   30.8030 O.2    30  GLU30      -0.2718
     54  CB        10.3250   18.0980   28.6060 C.3    30  GLU30       0.0402
     55  CG        11.3400   18.8620   27.7710 C.3    30  GLU30       0.1161
     56  CD        12.2280   19.7970   28.5070 C.2    30  GLU30       0.3649
     57  OE1       13.4800   19.8100   28.1640 O.co2  30  GLU30      -0.2457
     58  OE2       11.7670   20.5110   29.4450 O.co2  30  GLU30      -0.2457
     59  N         10.7170   17.5480   31.7090 N.am   31  PHE31      -0.1976
     60  CA        11.2230   17.8200   33.0480 C.3    31  PHE31       0.1639
     61  C         12.1410   16.7040   33.5460 C.2    31  PHE31       0.2290
     62  O         13.1230   16.9840   34.2190 O.2    31  PHE31      -0.2864
     63  CB        10.0650   18.0490   34.0510 C.3    31  PHE31       0.0560
     64  CG         9.0870   19.1480   33.7090 C.ar   31  PHE31      -0.0200
     65  CD1        7.8100   19.0620   34.2230 C.ar   31  PHE31      -0.0042
     66  CD2        9.3830   20.1990   32.8820 C.ar   31  PHE31      -0.0042
     67  CE1        6.8850   20.0480   33.9270 C.ar   31  PHE31      -0.0003
     68  CE2        8.4900   21.2000   32.5870 C.ar   31  PHE31      -0.0003
     69  CZ         7.2260   21.1120   33.1270 C.ar   31  PHE31      -0.0000
     70  N         14.0460   14.7890   31.7120 N.3    33  TYR33      -0.1227
     71  CA        15.3200   14.9720   31.0380 C.3    33  TYR33       0.1736
     72  C         16.1140   16.0510   31.7230 C.2    33  TYR33       0.2595
     73  O         17.3060   15.8880   32.0280 O.2    33  TYR33      -0.2718
     74  CB        15.0890   15.3570   29.5560 C.3    33  TYR33       0.0548
     75  CG        16.3090   15.7760   28.8220 C.ar   33  TYR33      -0.0200
     76  CD1       16.5390   17.1240   28.5200 C.ar   33  TYR33      -0.0009
     77  CD2       17.2570   14.8270   28.4390 C.ar   33  TYR33      -0.0009
     78  CE1       17.7150   17.4890   27.8290 C.ar   33  TYR33       0.0417
     79  CE2       18.4010   15.1960   27.7520 C.ar   33  TYR33       0.0417
     80  CZ        18.5990   16.5100   27.4440 C.ar   33  TYR33       0.1957
     81  OH        19.7600   16.8460   26.7380 O.3    33  TYR33      -0.2866
     82  N         15.5200   17.1980   31.9840 N.am   34  PHE34      -0.1976
     83  CA        16.1750   18.2750   32.7310 C.3    34  PHE34       0.1639
     84  C         16.7400   17.7440   34.0440 C.2    34  PHE34       0.2290
     85  O         17.8490   18.0970   34.4300 O.2    34  PHE34      -0.2864
     86  CB        15.1430   19.4050   32.9590 C.3    34  PHE34       0.0560
     87  CG        15.6060   20.4380   33.9480 C.ar   34  PHE34      -0.0200
     88  CD1       16.3530   21.5340   33.5400 C.ar   34  PHE34      -0.0042
     89  CD2       15.3120   20.3160   35.3070 C.ar   34  PHE34      -0.0042
     90  CE1       16.7630   22.4910   34.4510 C.ar   34  PHE34      -0.0003
     91  CE2       15.7700   21.2420   36.1940 C.ar   34  PHE34      -0.0003
     92  CZ        16.4890   22.3490   35.7870 C.ar   34  PHE34      -0.0000
     93  N         12.6420   32.4200   37.4110 N.3    56  THR56      -0.1218
     94  CA        12.7370   30.9910   37.1590 C.3    56  THR56       0.1862
     95  C         12.5280   30.2110   38.4590 C.2    56  THR56       0.2287
     96  O         11.7630   29.2320   38.4850 O.2    56  THR56      -0.2866
     97  CB        14.0820   30.6800   36.5160 C.3    56  THR56       0.1770
     98  OG1       14.1280   31.2500   35.2280 O.3    56  THR56      -0.2211
     99  CG2       14.2880   29.1760   36.3260 C.3    56  THR56       0.0375
    100  N          8.9720   30.0420   39.2420 N.3    59  SER59      -0.1202
    101  CA         8.2110   29.2870   38.2430 C.3    59  SER59       0.2020
    102  C          8.2560   27.8130   38.5310 C.2    59  SER59       0.2619
    103  O          7.4560   27.0840   37.9520 O.2    59  SER59      -0.2717
    104  CB         8.7590   29.5960   36.8510 C.3    59  SER59       0.2103
    105  OG         9.8930   28.8400   36.5170 O.3    59  SER59      -0.2182
    106  N          9.1650   27.3480   39.3830 N.am   60  ILE60      -0.1966
    107  CA         9.2410   25.9410   39.7440 C.3    60  ILE60       0.1712
    108  C          8.2250   25.6430   40.8340 C.2    60  ILE60       0.2458
    109  O          8.1650   26.4080   41.8010 O.2    60  ILE60      -0.2730
    110  CB        10.6560   25.5510   40.2170 C.3    60  ILE60       0.0289
    111  CG1       11.7400   25.8840   39.1720 C.3    60  ILE60       0.0022
    112  CG2       10.6930   24.0940   40.6450 C.3    60  ILE60       0.0023
    113  CD1       13.1180   25.8710   39.8240 C.3    60  ILE60       0.0001
    114  N          7.4290   24.5950   40.6720 N.am   61  PRO61      -0.2727
    115  CA         6.4370   24.3350   41.7100 C.3    61  PRO61       0.1402
    116  C          7.0730   24.1920   43.0720 C.2    61  PRO61       0.2269
    117  O          8.1120   23.5940   43.1910 O.2    61  PRO61      -0.2865
    118  CB         5.8230   23.0000   41.2920 C.3    61  PRO61       0.0296
    119  CG         5.9990   22.9680   39.8170 C.3    61  PRO61       0.0237
    120  CD         7.3180   23.6420   39.5500 C.3    61  PRO61       0.0939
    121  N          8.7590   21.0530   44.2640 N.3    64  ASN64      -0.1240
    122  CA        10.0190   20.7150   43.6380 C.3    64  ASN64       0.1653
    123  C         11.1530   21.6510   44.0270 C.2    64  ASN64       0.2266
    124  O         12.2340   21.5810   43.4150 O.2    64  ASN64      -0.2867
    125  CB         9.9020   20.7700   42.0980 C.3    64  ASN64       0.1155
    126  CG         8.9110   19.8180   41.5370 C.2    64  ASN64       0.2627
    127  OD1        8.0480   20.2060   40.7390 O.2    64  ASN64      -0.2716
    128  ND2        8.9770   18.5860   41.9520 N.am   64  ASN64      -0.0877
    129  N         15.4410   22.2710   43.9760 N.3    67  LEU67      -0.1245
    130  CA        15.6250   21.1110   43.1000 C.3    67  LEU67       0.1561
    131  C         16.4630   20.0940   43.8270 C.2    67  LEU67       0.2260
    132  O         17.5960   20.3720   44.2190 O.2    67  LEU67      -0.2867
    133  CB        16.2690   21.6050   41.8080 C.3    67  LEU67       0.0270
    134  CG        15.3610   22.5040   40.9200 C.3    67  LEU67       0.0019
    135  CD1       16.1500   23.0710   39.7630 C.3    67  LEU67       0.0001
    136  CD2       14.1700   21.7510   40.4120 C.3    67  LEU67       0.0001
    137  N         20.0610   27.4950   34.3270 N.3   115  VAL115     -0.1245
    138  CA        18.7470   26.9500   34.0360 C.3   115  VAL115      0.1561
    139  C         17.6870   28.0300   33.7240 C.2   115  VAL115      0.2260
    140  O         16.5140   27.6790   33.5860 O.2   115  VAL115     -0.2867
    141  CB        18.2660   25.9530   35.1080 C.3   115  VAL115      0.0252
    142  CG1       19.3250   24.8940   35.3530 C.3   115  VAL115      0.0019
    143  CG2       17.9380   26.6340   36.4200 C.3   115  VAL115      0.0019
    144  N         20.9830   33.3130   30.7590 N.3   121  TYR121     -0.1241
    145  CA        21.5560   32.6710   29.5630 C.3   121  TYR121      0.1605
    146  C         22.4750   33.6050   28.8000 C.2   121  TYR121      0.2264
    147  O         23.5410   33.2750   28.3400 O.2   121  TYR121     -0.2867
    148  CB        20.4320   32.2180   28.6630 C.3   121  TYR121      0.0534
    149  CG        19.5840   31.0920   29.1810 C.ar  121  TYR121     -0.0201
    150  CD1       18.2090   31.1770   29.1150 C.ar  121  TYR121     -0.0009
    151  CD2       20.1460   29.8950   29.6780 C.ar  121  TYR121     -0.0009
    152  CE1       17.3990   30.1600   29.5330 C.ar  121  TYR121      0.0417
    153  CE2       19.3190   28.8770   30.1080 C.ar  121  TYR121      0.0417
    154  CZ        17.9540   28.9830   30.0440 C.ar  121  TYR121      0.1957
    155  OH        17.1280   28.0170   30.4580 O.3   121  TYR121     -0.2866
    156  N         16.2820   21.9350   24.2810 N.3   136  THR136     -0.1218
    157  CA        15.1300   21.1510   23.9010 C.3   136  THR136      0.1862
    158  C         14.3390   22.0020   22.9160 C.2   136  THR136      0.2287
    159  O         13.8450   23.0830   23.3030 O.2   136  THR136     -0.2866
    160  CB        14.2390   20.7490   25.0680 C.3   136  THR136      0.1770
    161  OG1       15.0410   19.9610   25.9570 O.3   136  THR136     -0.2211
    162  CG2       13.0490   19.9490   24.5860 C.3   136  THR136      0.0375
@<TRIPOS>BOND
     1   158   159    2
     2   158   157    1
     3   157   156    1
     4   157   160    1
     5   162   160    1
     6   160   161    1
     7    41    39   ar
     8    41    42   ar
     9    39    36   ar
    10    18    19    2
    11    18    17    1
    12    14    13    1
    13    33    34    1
    14    33    30    1
    15    42    40   ar
    16    36    34   ar
    17    36    38   ar
    18    17    20    1
    19    17    16    1
    20    12    11    2
    21    81    80    1
    22    34    35   ar
    23    30    29    1
    24    30    31    1
    25    40    38   ar
    26    38    37   ar
    27    11    16   am
    28    11    10    1
    29    15    13    1
    30    13    10    1
    31    80    79   ar
    32    80    78   ar
    33    35    37   ar
    34    79    77   ar
    35    55    56    1
    36    55    54    1
    37    78    76   ar
    38    31    32    2
    39    10     9    1
    40    57    56   ar
    41   147   146    2
    42    77    75   ar
    43     9     3   am
    44    56    58   ar
    45    76    75   ar
    46    54    51    1
    47   148   149    1
    48   148   145    1
    49   146   145    1
    50    75    74    1
    51   150   149   ar
    52   150   152   ar
    53   149   151   ar
    54    51    50    1
    55    51    52    1
    56   152   154   ar
    57    74    71    1
    58     3     2    1
    59     3     4    2
    60   145   144    1
    61    23    24    2
    62    23    22    1
    63     2     1    1
    64     2     5    1
    65   151   153   ar
    66   154   153   ar
    67   154   155    1
    68     6     5    1
    69     6     8    1
    70    46    45    2
    71     5     7    1
    72    22    25    1
    73    22    21    1
    74    45    44    1
    75    25    26    1
    76    52    53    2
    77    52    59   am
    78    43    44    1
    79    43    49    1
    80    71    70    1
    81    71    72    1
    82    28    26    1
    83    44    47    1
    84    26    27    1
    85    59    60    1
    86    72    82   am
    87    72    73    2
    88    49    48    1
    89    82    83    1
    90    68    66   ar
    91    68    69   ar
    92    83    86    1
    93    83    84    1
    94    47    48    1
    95    66    64   ar
    96    86    87    1
    97    60    61    1
    98    60    63    1
    99    69    67   ar
   100    88    87   ar
   101    88    90   ar
   102    61    62    2
   103   140   139    2
   104    64    63    1
   105    64    65   ar
   106   139   138    1
   107    67    65   ar
   108    87    89   ar
   109   138   137    1
   110   138   141    1
   111    84    85    2
   112    90    92   ar
   113   141   142    1
   114   141   143    1
   115    98    97    1
   116    89    91   ar
   117    92    91   ar
   118    99    97    1
   119    97    94    1
   120   105   104    1
   121   104   101    1
   122    94    93    1
   123    94    95    1
   124   103   102    2
   125   101   102    1
   126   101   100    1
   127    95    96    2
   128   102   106   am
   129   111   113    1
   130   111   110    1
   131   106   107    1
   132   120   119    1
   133   120   114    1
   134   107   110    1
   135   107   108    1
   136   135   134    1
   137   119   118    1
   138   110   112    1
   139   136   134    1
   140   114   108   am
   141   114   115    1
   142   127   126    2
   143   108   109    2
   144   134   133    1
   145   118   115    1
   146   126   128   am
   147   126   125    1
   148   115   116    1
   149   133   130    1
   150   125   122    1
   151   116   117    2
   152   130   131    1
   153   130   129    1
   154   124   123    2
   155   122   123    1
   156   122   121    1
   157   131   132    2
