@<TRIPOS>MOLECULE
tmp/1kmyA00.pdb
 168 160 0 0 0
SMALL
GASTEIGER

@<TRIPOS>ATOM
      1  N         24.0590  -12.1130   73.6520 N.3   145  HIS145     -0.1241
      2  CA        23.9980  -13.0160   74.7950 C.3   145  HIS145      0.1621
      3  C         25.2440  -13.8790   74.9130 C.2   145  HIS145      0.2264
      4  O         26.1030  -13.8730   74.0260 O.2   145  HIS145     -0.2867
      5  CB        22.7450  -13.9180   74.7260 C.3   145  HIS145      0.0745
      6  CG        22.7990  -15.0020   73.6830 C.ar  145  HIS145      0.0817
      7  ND1       21.9430  -15.0790   72.6070 N.ar  145  HIS145     -0.2268
      8  CD2       23.5770  -16.1130   73.6030 C.ar  145  HIS145      0.1154
      9  CE1       22.2060  -16.2000   71.9200 C.ar  145  HIS145      0.1986
     10  NE2       23.1920  -16.8720   72.4810 N.ar  145  HIS145     -0.2212
     11  N         26.6450  -17.7470   76.9720 N.3   147  VAL147     -0.1245
     12  CA        26.3190  -18.9190   77.7710 C.3   147  VAL147      0.1561
     13  C         27.3990  -19.0780   78.8350 C.2   147  VAL147      0.2260
     14  O         28.5650  -19.2810   78.5090 O.2   147  VAL147     -0.2867
     15  CB        26.2660  -20.2090   76.9010 C.3   147  VAL147      0.0252
     16  CG1       25.9820  -21.4340   77.7840 C.3   147  VAL147      0.0019
     17  CG2       25.2070  -20.0810   75.8160 C.3   147  VAL147      0.0019
     18  N         16.1630  -26.0720   77.9360 N.3   172  ILE172     -0.1245
     19  CA        16.4110  -27.1010   76.9340 C.3   172  ILE172      0.1561
     20  C         17.2010  -28.2190   77.6280 C.2   172  ILE172      0.2260
     21  O         18.2180  -27.9500   78.2800 O.2   172  ILE172     -0.2867
     22  CB        17.2280  -26.5790   75.7060 C.3   172  ILE172      0.0252
     23  CG1       16.4670  -25.4560   74.9790 C.3   172  ILE172      0.0019
     24  CG2       17.4660  -27.7260   74.7040 C.3   172  ILE172      0.0019
     25  CD1       17.1940  -24.9080   73.7640 C.3   172  ILE172      0.0001
     26  N         19.5850  -30.7610   77.2530 N.3   174  MET174     -0.1245
     27  CA        20.6300  -31.1320   76.3250 C.3   174  MET174      0.1570
     28  C         21.1960  -32.5120   76.5970 C.2   174  MET174      0.2261
     29  O         21.7820  -32.7530   77.6520 O.2   174  MET174     -0.2867
     30  CB        21.7930  -30.1380   76.4480 C.3   174  MET174      0.0387
     31  CG        21.4500  -28.6730   76.2440 C.3   174  MET174      0.0595
     32  SD        21.3150  -28.2490   74.5130 S.3   174  MET174     -0.1393
     33  CE        22.9780  -27.7640   74.1330 C.3   174  MET174      0.0692
     34  N         19.8560  -26.5870   80.1700 N.3   184  ALA184     -0.1245
     35  CA        20.4200  -25.2850   79.8770 C.3   184  ALA184      0.1562
     36  C         19.2530  -24.3150   80.1530 C.2   184  ALA184      0.2260
     37  O         18.1180  -24.5530   79.7200 O.2   184  ALA184     -0.2867
     38  CB        20.8620  -25.2260   78.4210 C.3   184  ALA184      0.0290
     39  N         17.6410  -20.5210   79.8460 N.3   186  PHE186     -0.1241
     40  CA        17.7220  -19.2720   79.0700 C.3   186  PHE186      0.1605
     41  C         16.9760  -18.1500   79.7900 C.2   186  PHE186      0.2264
     42  O         15.7880  -18.2800   80.0970 O.2   186  PHE186     -0.2867
     43  CB        17.2050  -19.5140   77.6520 C.3   186  PHE186      0.0534
     44  CG        17.9760  -20.5760   76.9280 C.ar  186  PHE186     -0.0203
     45  CD1       17.7500  -21.9310   77.2050 C.ar  186  PHE186     -0.0042
     46  CD2       18.9990  -20.2300   76.0420 C.ar  186  PHE186     -0.0042
     47  CE1       18.5350  -22.9210   76.6110 C.ar  186  PHE186     -0.0003
     48  CE2       19.7900  -21.2110   75.4430 C.ar  186  PHE186     -0.0003
     49  CZ        19.5600  -22.5570   75.7300 C.ar  186  PHE186     -0.0000
     50  N         16.9700  -14.2510   75.0840 N.3   194  HIS194     -0.1241
     51  CA        17.8400  -14.4750   76.2230 C.3   194  HIS194      0.1621
     52  C         19.0810  -13.6310   76.0980 C.2   194  HIS194      0.2264
     53  O         19.5940  -13.4260   74.9950 O.2   194  HIS194     -0.2867
     54  CB        18.1870  -15.9600   76.4510 C.3   194  HIS194      0.0745
     55  CG        18.9850  -16.6020   75.3570 C.ar  194  HIS194      0.0817
     56  ND1       18.4230  -17.0500   74.1790 N.ar  194  HIS194     -0.2268
     57  CD2       20.2940  -16.9530   75.3040 C.ar  194  HIS194      0.1154
     58  CE1       19.3470  -17.6530   73.4510 C.ar  194  HIS194      0.1986
     59  NE2       20.4890  -17.6040   74.1120 N.ar  194  HIS194     -0.2212
     60  N         22.4260  -17.4650   79.2890 N.3   197  ALA197     -0.1245
     61  CA        22.0020  -18.8560   79.3850 C.3   197  ALA197      0.1562
     62  C         22.9800  -19.4850   80.3930 C.2   197  ALA197      0.2260
     63  O         24.1370  -19.0710   80.4870 O.2   197  ALA197     -0.2867
     64  CB        22.0830  -19.5560   78.0390 C.3   197  ALA197      0.0290
     65  N         28.1640  -27.3570   81.7960 N.3   201  PHE201     -0.1241
     66  CA        28.9250  -28.1130   80.7960 C.3   201  PHE201      0.1605
     67  C         30.3450  -28.2860   81.2690 C.2   201  PHE201      0.2264
     68  O         30.8770  -27.4340   81.9730 O.2   201  PHE201     -0.2867
     69  CB        28.9920  -27.3830   79.4550 C.3   201  PHE201      0.0534
     70  CG        27.6830  -27.2850   78.7540 C.ar  201  PHE201     -0.0203
     71  CD1       27.3830  -26.1650   77.9950 C.ar  201  PHE201     -0.0042
     72  CD2       26.7460  -28.3080   78.8510 C.ar  201  PHE201     -0.0042
     73  CE1       26.1610  -26.0640   77.3420 C.ar  201  PHE201     -0.0003
     74  CE2       25.5210  -28.2200   78.2040 C.ar  201  PHE201     -0.0003
     75  CZ        25.2250  -27.0980   77.4470 C.ar  201  PHE201     -0.0000
     76  N         30.5740  -20.6960   77.0120 N.3   208  HIS208     -0.1226
     77  CA        30.6600  -21.5720   75.8710 C.3   208  HIS208      0.1752
     78  C         30.8150  -20.6830   74.6390 C.2   208  HIS208      0.2596
     79  O         31.6170  -20.9690   73.7530 O.2   208  HIS208     -0.2718
     80  CB        29.4010  -22.4250   75.7300 C.3   208  HIS208      0.0759
     81  CG        29.3480  -23.2040   74.4510 C.ar  208  HIS208      0.0818
     82  ND1       28.7860  -22.7080   73.2940 N.ar  208  HIS208     -0.2268
     83  CD2       29.8280  -24.4330   74.1350 C.ar  208  HIS208      0.1154
     84  CE1       28.9110  -23.6000   72.3240 C.ar  208  HIS208      0.1986
     85  NE2       29.5470  -24.6520   72.8070 N.ar  208  HIS208     -0.2212
     86  N         30.0130  -19.6250   74.5620 N.am  209  HIS209     -0.1975
     87  CA        30.0720  -18.7040   73.4230 C.3   209  HIS209      0.1656
     88  C         29.3640  -17.4090   73.7450 C.2   209  HIS209      0.2291
     89  O         28.6800  -17.2960   74.7670 O.2   209  HIS209     -0.2864
     90  CB        29.3870  -19.3070   72.1810 C.3   209  HIS209      0.0771
     91  CG        27.8880  -19.4170   72.2960 C.ar  209  HIS209      0.0820
     92  ND1       27.2270  -20.5200   72.8010 N.ar  209  HIS209     -0.2267
     93  CD2       26.9180  -18.5490   71.9150 C.ar  209  HIS209      0.1154
     94  CE1       25.9160  -20.2920   72.7000 C.ar  209  HIS209      0.1986
     95  NE2       25.6720  -19.1090   72.1700 N.ar  209  HIS209     -0.2212
     96  N         17.4820  -22.2400   65.8810 N.3   240  HIS240     -0.1241
     97  CA        17.1930  -22.7110   67.2300 C.3   240  HIS240      0.1621
     98  C         15.7030  -22.8970   67.4630 C.2   240  HIS240      0.2264
     99  O         14.8770  -22.1770   66.9000 O.2   240  HIS240     -0.2867
    100  CB        17.7390  -21.7460   68.2690 C.3   240  HIS240      0.0745
    101  CG        19.2250  -21.7840   68.3930 C.ar  240  HIS240      0.0817
    102  ND1       19.9110  -22.9180   68.7730 N.ar  240  HIS240     -0.2268
    103  CD2       20.1600  -20.8230   68.1970 C.ar  240  HIS240      0.1154
    104  CE1       21.2070  -22.6550   68.8060 C.ar  240  HIS240      0.1986
    105  NE2       21.3820  -21.3890   68.4670 N.ar  240  HIS240     -0.2212
    106  N         14.1770  -22.5350   70.4710 N.3   242  ASN242     -0.1225
    107  CA        13.6360  -21.5790   71.4210 C.3   242  ASN242      0.1785
    108  C         13.5890  -20.1120   70.9980 C.2   242  ASN242      0.2597
    109  O         12.5350  -19.4740   71.1260 O.2   242  ASN242     -0.2718
    110  CB        14.2700  -21.7730   72.8080 C.3   242  ASN242      0.1169
    111  CG        15.7700  -21.5360   72.8250 C.2   242  ASN242      0.2627
    112  OD1       16.4220  -21.4660   71.7840 O.2   242  ASN242     -0.2716
    113  ND2       16.3240  -21.4030   74.0270 N.am  242  ASN242     -0.0877
    114  N         14.6960  -19.5620   70.5010 N.am  243  ASP243     -0.1974
    115  CA        14.6730  -18.1690   70.0620 C.3   243  ASP243      0.1709
    116  C         14.4600  -18.0050   68.5650 C.2   243  ASP243      0.2293
    117  O         14.3140  -16.8970   68.0780 O.2   243  ASP243     -0.2864
    118  CB        15.9060  -17.3820   70.5470 C.3   243  ASP243      0.1436
    119  CG        17.2200  -17.8500   69.9390 C.2   243  ASP243      0.3671
    120  OD1       17.2440  -18.7600   69.0800 O.co2 243  ASP243     -0.2456
    121  OD2       18.2570  -17.2980   70.3610 O.co2 243  ASP243     -0.2456
    122  N         16.4350  -18.1950   66.2010 N.3   245  MET245     -0.1245
    123  CA        17.5270  -17.5120   65.5430 C.3   245  MET245      0.1570
    124  C         18.1810  -18.4300   64.5160 C.2   245  MET245      0.2261
    125  O         18.3930  -19.6160   64.7820 O.2   245  MET245     -0.2867
    126  CB        18.5760  -17.0620   66.5580 C.3   245  MET245      0.0387
    127  CG        19.7880  -16.4040   65.9100 C.3   245  MET245      0.0595
    128  SD        20.9240  -15.6780   67.0900 S.3   245  MET245     -0.1393
    129  CE        20.3050  -14.0420   67.1180 C.3   245  MET245      0.0692
    130  N         28.0880  -21.2160   64.2490 N.3   249  TYR249     -0.1241
    131  CA        29.0310  -21.0400   65.3570 C.3   249  TYR249      0.1605
    132  C         30.4390  -21.1660   64.7770 C.2   249  TYR249      0.2264
    133  O         30.6510  -21.8970   63.8060 O.2   249  TYR249     -0.2867
    134  CB        28.8350  -22.1120   66.4410 C.3   249  TYR249      0.0534
    135  CG        27.5480  -22.0000   67.2220 C.ar  249  TYR249     -0.0201
    136  CD1       26.3290  -22.3710   66.6530 C.ar  249  TYR249     -0.0009
    137  CD2       27.5540  -21.5860   68.5490 C.ar  249  TYR249     -0.0009
    138  CE1       25.1510  -22.3450   67.3890 C.ar  249  TYR249      0.0417
    139  CE2       26.3820  -21.5560   69.2950 C.ar  249  TYR249      0.0417
    140  CZ        25.1810  -21.9460   68.7020 C.ar  249  TYR249      0.1957
    141  OH        24.0180  -21.9920   69.4300 O.3   249  TYR249     -0.2866
    142  N         28.6970  -17.0990   68.2120 N.3   259  GLU259     -0.1245
    143  CA        27.5100  -17.4430   67.4390 C.3   259  GLU259      0.1567
    144  C         27.1580  -16.1660   66.6790 C.2   259  GLU259      0.2260
    145  O         27.1800  -15.0780   67.2410 O.2   259  GLU259     -0.2867
    146  CB        26.3630  -17.8600   68.3590 C.3   259  GLU259      0.0388
    147  CG        25.1040  -18.2390   67.5970 C.3   259  GLU259      0.1160
    148  CD        23.9640  -18.6530   68.4970 C.2   259  GLU259      0.3649
    149  OE1       23.0060  -19.2470   67.9640 O.co2 259  GLU259     -0.2457
    150  OE2       24.0230  -18.4220   69.7280 O.co2 259  GLU259     -0.2457
    151  N         17.9560  -28.2800   70.8420 N.3   279  PRO279     -0.2116
    152  CA        18.2760  -26.8530   70.7340 C.3   279  PRO279      0.1372
    153  C         18.1410  -26.3150   69.3210 C.2   279  PRO279      0.2244
    154  O         18.2550  -25.1140   69.0980 O.2   279  PRO279     -0.2868
    155  CB        19.7350  -26.7900   71.2000 C.3   279  PRO279      0.0268
    156  CG        20.3020  -28.0620   70.6690 C.3   279  PRO279      0.0207
    157  CD        19.1890  -29.0890   70.9630 C.3   279  PRO279      0.0892
    158  N         32.8960  -29.9780   64.5890 N.3   288  ARG288     -0.1245
    159  CA        34.0110  -29.7620   65.5030 C.3   288  ARG288      0.1563
    160  C         34.9120  -31.0060   65.5050 C.2   288  ARG288      0.2260
    161  O         34.5880  -32.0000   64.8030 O.2   288  ARG288     -0.2867
    162  CB        33.5030  -29.4970   66.9250 C.3   288  ARG288      0.0307
    163  CG        32.6890  -28.2330   67.0870 C.3   288  ARG288      0.0489
    164  CD        32.1080  -28.1220   68.4960 C.3   288  ARG288      0.2205
    165  NE        31.2750  -26.9290   68.6530 N.pl3 288  ARG288     -0.0865
    166  CZ        29.9920  -26.8380   68.2950 C.cat 288  ARG288      0.5346
    167  NH1       29.3620  -27.8820   67.7560 N.pl3 288  ARG288      0.1354
    168  NH2       29.3570  -25.6740   68.4260 N.pl3 288  ARG288      0.1354
@<TRIPOS>BOND
     1   133   132    2
     2   130   131    1
     3   124   125    2
     4   124   123    1
     5   158   159    1
     6   132   131    1
     7   161   160    2
     8   131   134    1
     9   159   160    1
    10   159   162    1
    11   123   122    1
    12   123   126    1
    13    96    97    1
    14   127   126    1
    15   127   128    1
    16   134   135    1
    17   136   135   ar
    18   136   138   ar
    19   144   145    2
    20   144   143    1
    21    99    98    2
    22   162   163    1
    23   163   164    1
    24   128   129    1
    25   135   137   ar
    26    97    98    1
    27    97   100    1
    28   138   140   ar
    29   143   142    1
    30   143   146    1
    31   147   146    1
    32   147   148    1
    33   167   166    1
    34   149   148   ar
    35   117   116    2
    36   103   101   ar
    37   103   105   ar
    38   100   101    1
    39   166   168    1
    40   166   165    2
    41   101   102   ar
    42   105   104   ar
    43   164   165    1
    44   148   150   ar
    45   137   139   ar
    46   116   115    1
    47   140   139   ar
    48   140   141    1
    49   102   104   ar
    50   120   119   ar
    51   154   153    2
    52   153   152    1
    53   119   121   ar
    54   119   118    1
    55   115   114    1
    56   115   118    1
    57   106   107    1
    58   114   108   am
    59   156   157    1
    60   156   155    1
    61   152   151    1
    62   152   155    1
    63   151   157    1
    64   108   109    2
    65   108   107    1
    66   107   110    1
    67   112   111    2
    68    93    95   ar
    69    93    91   ar
    70     9    10   ar
    71     9     7   ar
    72    95    94   ar
    73    90    91    1
    74    90    87    1
    75    91    92   ar
    76    84    85   ar
    77    84    82   ar
    78    10     8   ar
    79     7     6   ar
    80    94    92   ar
    81    85    83   ar
    82   110   111    1
    83   111   113   am
    84    82    81   ar
    85    87    88    1
    86    87    86    1
    87    58    59   ar
    88    58    56   ar
    89     8     6   ar
    90     1     2    1
    91     6     5    1
    92    88    89    2
    93    79    78    2
    94    25    23    1
    95     4     3    2
    96    59    57   ar
    97    33    32    1
    98    83    81   ar
    99    56    55   ar
   100    81    80    1
   101    32    31    1
   102    86    78   am
   103    78    77    1
   104    24    22    1
   105     5     2    1
   106     2     3    1
   107    23    22    1
   108    53    52    2
   109    50    51    1
   110    57    55   ar
   111    55    54    1
   112    48    49   ar
   113    48    46   ar
   114    22    19    1
   115    80    77    1
   116    49    47   ar
   117    17    15    1
   118    77    76    1
   119    46    44   ar
   120    52    51    1
   121    51    54    1
   122    31    30    1
   123    27    30    1
   124    27    28    1
   125    27    26    1
   126    28    29    2
   127    47    45   ar
   128    15    12    1
   129    15    16    1
   130    44    45   ar
   131    44    43    1
   132    19    20    1
   133    19    18    1
   134    11    12    1
   135    73    75   ar
   136    73    71   ar
   137    75    74   ar
   138    20    21    2
   139    43    40    1
   140    12    13    1
   141    71    70   ar
   142    64    61    1
   143    74    72   ar
   144    38    35    1
   145    14    13    2
   146    70    72   ar
   147    70    69    1
   148    40    41    1
   149    40    39    1
   150    60    61    1
   151    61    62    1
   152    69    66    1
   153    37    36    2
   154    41    42    2
   155    35    36    1
   156    35    34    1
   157    62    63    2
   158    66    67    1
   159    66    65    1
   160    67    68    2
