@<TRIPOS>MOLECULE
tmp/1kn1B00.pdb
 212 202 0 0 0
SMALL
GASTEIGER

@<TRIPOS>ATOM
      1  N         35.1050    2.8810   23.2910 N.3    60  LEU60      -0.1245
      2  CA        34.4450    1.5910   23.1410 C.3    60  LEU60       0.1561
      3  C         35.3310    0.3990   22.7860 C.2    60  LEU60       0.2260
      4  O         35.0870   -0.6960   23.3140 O.2    60  LEU60      -0.2867
      5  CB        33.3250    1.7030   22.0740 C.3    60  LEU60       0.0270
      6  CG        32.1670    2.6740   22.2340 C.3    60  LEU60       0.0019
      7  CD1       31.4260    2.7840   20.9250 C.3    60  LEU60       0.0001
      8  CD2       31.3000    2.2290   23.3750 C.3    60  LEU60       0.0001
      9  N         32.8760   -5.0300   25.6760 N.3    65  ILE65      -0.1245
     10  CA        31.7120   -4.7300   24.8270 C.3    65  ILE65       0.1561
     11  C         31.9060   -5.2180   23.3910 C.2    65  ILE65       0.2260
     12  O         30.9100   -5.4280   22.7120 O.2    65  ILE65      -0.2867
     13  CB        31.4280   -3.1750   24.7750 C.3    65  ILE65       0.0252
     14  CG1       31.6890   -2.4480   26.0940 C.3    65  ILE65       0.0019
     15  CG2       29.9680   -2.9710   24.4650 C.3    65  ILE65       0.0019
     16  CD1       30.9790   -2.9100   27.4100 C.3    65  ILE65       0.0001
     17  N         27.5240   -6.2080   23.9380 N.3    71  ASN71      -0.1225
     18  CA        26.4480   -5.6850   23.1000 C.3    71  ASN71       0.1785
     19  C         26.9330   -5.1190   21.8040 C.2    71  ASN71       0.2597
     20  O         26.1390   -4.9820   20.8790 O.2    71  ASN71      -0.2718
     21  CB        25.6030   -4.6230   23.8630 C.3    71  ASN71       0.1169
     22  CG        24.2280   -4.1840   23.2780 C.2    71  ASN71       0.2627
     23  OD1       23.9910   -3.0400   23.4960 O.2    71  ASN71      -0.2716
     24  ND2       23.2070   -4.9500   22.8650 N.am   71  ASN71      -0.0877
     25  N         28.2300   -4.8950   21.6490 N.am   72  MET72      -0.1979
     26  CA        28.7570   -4.4490   20.3770 C.3    72  MET72       0.1605
     27  C         29.4020   -5.5630   19.5230 C.2    72  MET72       0.2287
     28  O         29.9020   -5.3430   18.4000 O.2    72  MET72      -0.2864
     29  CB        29.7340   -3.3320   20.6610 C.3    72  MET72       0.0413
     30  CG        29.6200   -2.2360   19.5740 C.3    72  MET72       0.0598
     31  SD        30.8070   -0.8690   19.6530 S.3    72  MET72      -0.1393
     32  CE        30.8430   -0.7680   21.3960 C.3    72  MET72       0.0692
     33  N         26.5370   -6.6870   12.9330 N.3    76  ARG76      -0.1231
     34  CA        25.2250   -6.0870   12.9950 C.3    76  ARG76       0.1694
     35  C         25.1150   -5.1330   14.1670 C.2    76  ARG76       0.2591
     36  O         24.6160   -4.0170   14.0320 O.2    76  ARG76      -0.2718
     37  CB        24.2400   -7.2000   13.1190 C.3    76  ARG76       0.0321
     38  CG        22.8150   -6.7820   12.8350 C.3    76  ARG76       0.0489
     39  CD        21.9420   -7.9910   13.1420 C.3    76  ARG76       0.2205
     40  NE        21.9510   -8.3750   14.5520 N.pl3  76  ARG76      -0.0865
     41  CZ        21.1800   -7.7750   15.4830 C.cat  76  ARG76       0.5346
     42  NH1       20.3220   -6.7540   15.2110 N.pl3  76  ARG76       0.1354
     43  NH2       21.2730   -8.2680   16.7260 N.pl3  76  ARG76       0.1354
     44  N         25.6710   -5.5100   15.3050 N.am   77  ARG77      -0.1980
     45  CA        25.6030   -4.6720   16.4690 C.3    77  ARG77       0.1597
     46  C         26.6760   -3.6010   16.4920 C.2    77  ARG77       0.2287
     47  O         26.4050   -2.5100   17.0180 O.2    77  ARG77      -0.2864
     48  CB        25.6740   -5.5410   17.6810 C.3    77  ARG77       0.0334
     49  CG        24.2820   -6.0350   17.8560 C.3    77  ARG77       0.0492
     50  CD        24.3730   -7.3250   18.5770 C.3    77  ARG77       0.2205
     51  NE        23.9630   -7.2380   19.9550 N.pl3  77  ARG77      -0.0865
     52  CZ        24.1410   -8.2950   20.7600 C.cat  77  ARG77       0.5346
     53  NH1       24.6890   -9.4460   20.3430 N.pl3  77  ARG77       0.1354
     54  NH2       23.7300   -8.2160   22.0300 N.pl3  77  ARG77       0.1354
     55  N         25.1320   -1.0210   14.1620 N.3    80  ALA80      -0.1231
     56  CA        23.9420   -0.4080   14.7330 C.3    80  ALA80       0.1694
     57  C         24.3040    0.5490   15.8190 C.2    80  ALA80       0.2592
     58  O         23.6000    1.5310   16.0490 O.2    80  ALA80      -0.2718
     59  CB        23.0410   -1.4230   15.3410 C.3    80  ALA80       0.0304
     60  N         25.4510    0.3250   16.4360 N.am   81  CYS81      -0.1970
     61  CA        25.9830    1.2710   17.4220 C.3    81  CYS81       0.1712
     62  C         26.6140    2.5370   16.8280 C.2    81  CYS81       0.2296
     63  O         26.2630    3.6280   17.3010 O.2    81  CYS81      -0.2864
     64  CB        27.0010    0.5430   18.3120 C.3    81  CYS81       0.0983
     65  SG        27.8150    1.5300   19.5970 S.3    81  CYS81      -0.0798
     66  N         25.7520    3.8540   14.1890 N.3    83  ARG83      -0.1231
     67  CA        24.5680    4.3840   13.5350 C.3    83  ARG83       0.1694
     68  C         23.9830    5.2510   14.5950 C.2    83  ARG83       0.2592
     69  O         23.7860    6.4270   14.3390 O.2    83  ARG83      -0.2718
     70  CB        23.6090    3.3080   13.2410 C.3    83  ARG83       0.0321
     71  CG        22.6770    3.5160   12.0800 C.3    83  ARG83       0.0489
     72  CD        21.2120    3.3510   12.5000 C.3    83  ARG83       0.2205
     73  NE        20.6480    2.0380   12.8410 N.pl3  83  ARG83      -0.0865
     74  CZ        20.3710    1.6820   14.1070 C.cat  83  ARG83       0.5346
     75  NH1       20.6090    2.4770   15.1450 N.pl3  83  ARG83       0.1354
     76  NH2       19.7840    0.5150   14.3360 N.pl3  83  ARG83       0.1354
     77  N         23.7670    4.7440   15.7970 N.am   84  ASP84      -0.1960
     78  CA        23.3300    5.5700   16.9130 C.3    84  ASP84       0.1840
     79  C         24.2280    6.7550   17.1310 C.2    84  ASP84       0.2621
     80  O         23.7020    7.8520   17.2620 O.2    84  ASP84      -0.2715
     81  CB        23.3140    4.8230   18.2240 C.3    84  ASP84       0.1450
     82  CG        22.1830    3.8240   18.4190 C.2    84  ASP84       0.3671
     83  OD1       21.5020    3.4490   17.4550 O.co2  84  ASP84      -0.2456
     84  OD2       22.0230    3.4250   19.5740 O.co2  84  ASP84      -0.2456
     85  N         25.5540    6.6030   17.1610 N.am   85  LEU85      -0.1977
     86  CA        26.4880    7.7150   17.2610 C.3    85  LEU85       0.1596
     87  C         26.3160    8.7430   16.1620 C.2    85  LEU85       0.2287
     88  O         26.4800    9.9440   16.3700 O.2    85  LEU85      -0.2864
     89  CB        27.8830    7.1350   17.2360 C.3    85  LEU85       0.0297
     90  CG        28.6810    7.0790   18.5370 C.3    85  LEU85       0.0022
     91  CD1       27.8360    7.1680   19.7880 C.3    85  LEU85       0.0001
     92  CD2       29.3780    5.7450   18.5580 C.3    85  LEU85       0.0001
     93  N         23.4370    9.3740   14.7590 N.3    87  TYR87      -0.1227
     94  CA        22.1720    9.9790   15.0930 C.3    87  TYR87       0.1736
     95  C         22.4970   11.0090   16.1290 C.2    87  TYR87       0.2595
     96  O         22.2520   12.1620   15.8340 O.2    87  TYR87      -0.2718
     97  CB        21.1820    8.9030   15.6240 C.3    87  TYR87       0.0548
     98  CG        20.5690    7.9660   14.5340 C.ar   87  TYR87      -0.0200
     99  CD1       20.6370    8.2680   13.1680 C.ar   87  TYR87      -0.0009
    100  CD2       19.8570    6.8230   14.9030 C.ar   87  TYR87      -0.0009
    101  CE1       19.9890    7.4760   12.2270 C.ar   87  TYR87       0.0417
    102  CE2       19.2080    6.0280   13.9620 C.ar   87  TYR87       0.0417
    103  CZ        19.2650    6.3680   12.6250 C.ar   87  TYR87       0.1957
    104  OH        18.5770    5.6340   11.6630 O.3    87  TYR87      -0.2866
    105  N         23.1620   10.7480   17.2490 N.am   88  TYR88      -0.1976
    106  CA        23.4890   11.7500   18.2610 C.3    88  TYR88       0.1639
    107  C         24.1930   13.0050   17.7450 C.2    88  TYR88       0.2290
    108  O         23.7700   14.1230   18.0460 O.2    88  TYR88      -0.2864
    109  CB        24.3250   11.0950   19.3120 C.3    88  TYR88       0.0560
    110  CG        23.5090   10.0420   20.0460 C.ar   88  TYR88      -0.0198
    111  CD1       22.1990   10.2980   20.4460 C.ar   88  TYR88      -0.0009
    112  CD2       24.0680    8.7920   20.2840 C.ar   88  TYR88      -0.0009
    113  CE1       21.4480    9.3100   21.0720 C.ar   88  TYR88       0.0417
    114  CE2       23.3270    7.8030   20.9120 C.ar   88  TYR88       0.0417
    115  CZ        22.0260    8.0750   21.3010 C.ar   88  TYR88       0.1957
    116  OH        21.2820    7.1200   21.9710 O.3    88  TYR88      -0.2866
    117  N         21.9090   15.1320   15.1200 N.3    91  TYR91      -0.1241
    118  CA        20.8490   15.8160   15.8260 C.3    91  TYR91       0.1605
    119  C         21.3250   16.9020   16.7650 C.2    91  TYR91       0.2264
    120  O         20.5710   17.8420   17.0380 O.2    91  TYR91      -0.2867
    121  CB        20.0550   14.8430   16.6050 C.3    91  TYR91       0.0534
    122  CG        18.9320   14.2500   15.7930 C.ar   91  TYR91      -0.0201
    123  CD1       17.6910   14.8550   15.6940 C.ar   91  TYR91      -0.0009
    124  CD2       19.1590   13.0580   15.1810 C.ar   91  TYR91      -0.0009
    125  CE1       16.6750   14.2530   14.9610 C.ar   91  TYR91       0.0417
    126  CE2       18.1620   12.4570   14.4590 C.ar   91  TYR91       0.0417
    127  CZ        16.9310   13.0420   14.3510 C.ar   91  TYR91       0.1957
    128  OH        15.9820   12.3930   13.5860 O.3    91  TYR91      -0.2866
    129  N         12.6770   13.9440   18.7110 N.3   107  ARG107     -0.1231
    130  CA        12.8480   12.8540   17.7560 C.3   107  ARG107      0.1694
    131  C         14.0020   11.9090   18.1890 C.2   107  ARG107      0.2591
    132  O         14.2380   10.8640   17.5670 O.2   107  ARG107     -0.2718
    133  CB        13.1500   13.4300   16.3640 C.3   107  ARG107      0.0321
    134  CG        11.9620   13.2400   15.4130 C.3   107  ARG107      0.0489
    135  CD        12.0690   14.0270   14.1060 C.3   107  ARG107      0.2205
    136  NE        11.4020   15.3320   14.1780 N.pl3 107  ARG107     -0.0865
    137  CZ        10.8360   15.9640   13.1380 C.cat 107  ARG107      0.5346
    138  NH1       10.8350   15.4270   11.9060 N.pl3 107  ARG107      0.1354
    139  NH2       10.2390   17.1570   13.2360 N.pl3 107  ARG107      0.1354
    140  N         14.7120   12.2760   19.2720 N.am  108  VAL108     -0.1980
    141  CA        15.8670   11.4540   19.7670 C.3   108  VAL108      0.1595
    142  C         15.6680   10.7860   21.1570 C.2   108  VAL108      0.2287
    143  O         15.6560    9.5570   21.2720 O.2   108  VAL108     -0.2864
    144  CB        17.1250   12.2800   19.9260 C.3   108  VAL108      0.0276
    145  CG1       18.3200   11.4300   20.3700 C.3   108  VAL108      0.0022
    146  CG2       17.5520   12.9730   18.6380 C.3   108  VAL108      0.0022
    147  N         13.9450    6.7950   24.8640 N.3   112  LEU112     -0.1245
    148  CA        15.1480    6.0430   24.4870 C.3   112  LEU112      0.1561
    149  C         15.6910    5.2480   25.6630 C.2   112  LEU112      0.2260
    150  O         16.1290    4.1210   25.4800 O.2   112  LEU112     -0.2867
    151  CB        16.2230    7.0190   23.9940 C.3   112  LEU112      0.0270
    152  CG        17.6190    6.6950   23.4730 C.3   112  LEU112      0.0019
    153  CD1       17.6020    5.8500   22.2080 C.3   112  LEU112      0.0001
    154  CD2       18.2660    8.0290   23.1290 C.3   112  LEU112      0.0001
    155  N         13.9620    1.9780   25.6770 N.3   115  THR115     -0.1203
    156  CA        14.4420    1.1160   24.5810 C.3   115  THR115      0.1994
    157  C         15.7960    0.4840   24.8550 C.2   115  THR115      0.2617
    158  O         16.0410   -0.7010   24.6190 O.2   115  THR115     -0.2717
    159  CB        14.5620    1.8990   23.3020 C.3   115  THR115      0.1784
    160  OG1       13.3160    2.5500   23.1060 O.3   115  THR115     -0.2211
    161  CG2       14.7930    1.0230   22.1040 C.3   115  THR115      0.0376
    162  N         16.6630    1.2520   25.4600 N.am  116  TYR116     -0.1975
    163  CA        17.9740    0.8200   25.8480 C.3   116  TYR116      0.1639
    164  C         17.9300   -0.1560   27.0190 C.2   116  TYR116      0.2290
    165  O         18.5950   -1.1880   26.9900 O.2   116  TYR116     -0.2864
    166  CB        18.7480    2.0680   26.1710 C.3   116  TYR116      0.0560
    167  CG        19.4170    2.7000   24.9660 C.ar  116  TYR116     -0.0198
    168  CD1       19.2110    2.2660   23.6650 C.ar  116  TYR116     -0.0009
    169  CD2       20.3390    3.6880   25.2720 C.ar  116  TYR116     -0.0009
    170  CE1       19.9830    2.8350   22.6660 C.ar  116  TYR116      0.0417
    171  CE2       21.1000    4.2480   24.2880 C.ar  116  TYR116      0.0417
    172  CZ        20.9180    3.8110   23.0020 C.ar  116  TYR116      0.1957
    173  OH        21.7550    4.3360   22.0440 O.3   116  TYR116     -0.2866
    174  N         16.4370   -3.6450   25.0730 N.3   119  LEU119     -0.1245
    175  CA        17.3560   -4.3790   24.2070 C.3   119  LEU119      0.1561
    176  C         18.6130   -4.7970   24.9490 C.2   119  LEU119      0.2260
    177  O         19.3810   -5.6240   24.4630 O.2   119  LEU119     -0.2867
    178  CB        17.8730   -3.5720   23.0680 C.3   119  LEU119      0.0270
    179  CG        17.0180   -2.8620   22.0760 C.3   119  LEU119      0.0019
    180  CD1       17.7230   -1.5740   21.7130 C.3   119  LEU119      0.0001
    181  CD2       16.8580   -3.6570   20.7970 C.3   119  LEU119      0.0001
    182  N         21.0560   -2.4650   26.0210 N.3   121  VAL121     -0.1231
    183  CA        22.1620   -1.5920   25.6070 C.3   121  VAL121      0.1678
    184  C         22.8370   -0.8080   26.7600 C.2   121  VAL121      0.2434
    185  O         22.1110   -0.1530   27.5370 O.2   121  VAL121     -0.2733
    186  CB        21.6050   -0.6450   24.5590 C.3   121  VAL121      0.0265
    187  CG1       22.6560    0.3620   24.0830 C.3   121  VAL121      0.0020
    188  CG2       21.1990   -1.4760   23.3950 C.3   121  VAL121      0.0020
    189  N         24.1760   -0.7990   26.9970 N.am  122  PRO122     -0.2729
    190  CA        24.7420   -0.0870   28.1320 C.3   122  PRO122      0.1401
    191  C         24.6970    1.4220   27.9510 C.2   122  PRO122      0.2269
    192  O         25.3780    1.9880   27.1100 O.2   122  PRO122     -0.2865
    193  CB        26.1360   -0.6790   28.2520 C.3   122  PRO122      0.0296
    194  CG        26.5150   -1.0790   26.8510 C.3   122  PRO122      0.0237
    195  CD        25.2010   -1.5840   26.2890 C.3   122  PRO122      0.0939
    196  N         28.2650    3.3000   28.8550 N.3   125  ALA125     -0.1231
    197  CA        29.2610    3.2920   27.7850 C.3   125  ALA125      0.1694
    198  C         28.8860    4.1660   26.5740 C.2   125  ALA125      0.2592
    199  O         29.7040    4.5430   25.7190 O.2   125  ALA125     -0.2718
    200  CB        29.4710    1.8370   27.3640 C.3   125  ALA125      0.0304
    201  N         27.6120    4.5120   26.4970 N.am  126  THR126     -0.1953
    202  CA        27.0970    5.3670   25.4580 C.3   126  THR126      0.1897
    203  C         27.3940    6.7600   25.9630 C.2   126  THR126      0.2313
    204  O         28.0890    7.4570   25.2330 O.2   126  THR126     -0.2863
    205  CB        25.5900    5.1270   25.2810 C.3   126  THR126      0.1794
    206  OG1       25.3590    3.7420   25.0620 O.3   126  THR126     -0.2208
    207  CG2       25.0670    5.8390   24.0710 C.3   126  THR126      0.0378
    208  N         30.8250    7.3410   25.2810 N.3   129  ALA129     -0.1245
    209  CA        31.1010    7.5680   23.9000 C.3   129  ALA129      0.1562
    210  C         30.6370    8.9670   23.5220 C.2   129  ALA129      0.2260
    211  O         31.3350    9.5890   22.7090 O.2   129  ALA129     -0.2867
    212  CB        30.3810    6.4980   23.0620 C.3   129  ALA129      0.0290
@<TRIPOS>BOND
     1   104   103    1
     2   138   137    1
     3    71    72    1
     4    71    70    1
     5   101   103   ar
     6   101    99   ar
     7    72    73    1
     8   103   102   ar
     9    38    37    1
    10    38    39    1
    11    73    74    2
    12    33    34    1
    13    34    37    1
    14    34    35    1
    15   137   139    1
    16   137   136    2
    17    39    40    1
    18    99    98   ar
    19    70    67    1
    20    67    66    1
    21    67    68    1
    22   128   127    1
    23   102   100   ar
    24    36    35    2
    25   135   136    1
    26   135   134    1
    27    74    76    1
    28    74    75    1
    29    55    56    1
    30    35    44   am
    31    69    68    2
    32   127   126   ar
    33   127   125   ar
    34   126   124   ar
    35    98   100   ar
    36    98    97    1
    37    40    41    2
    38    68    77   am
    39    56    59    1
    40    56    57    1
    41    93    94    1
    42   125   123   ar
    43    94    97    1
    44    94    95    1
    45   117   118    1
    46   124   122   ar
    47    42    41    1
    48    44    45    1
    49   134   133    1
    50    41    43    1
    51   123   122   ar
    52   122   121    1
    53    77    78    1
    54    57    58    2
    55    57    60   am
    56   118   121    1
    57   118   119    1
    58    96    95    2
    59    95   105   am
    60    87    88    2
    61    87    86    1
    62   133   130    1
    63    60    61    1
    64    45    46    1
    65    45    48    1
    66    46    47    2
    67   119   120    2
    68    62    63    2
    69    62    61    1
    70    78    79    1
    71    78    81    1
    72    79    85   am
    73    79    80    2
    74    85    86    1
    75    89    86    1
    76    89    90    1
    77   105   106    1
    78    61    64    1
    79    83    82   ar
    80   132   131    2
    81    48    49    1
    82   107   108    2
    83   107   106    1
    84   130   131    1
    85   130   129    1
    86    49    50    1
    87   131   140   am
    88    81    82    1
    89   106   109    1
    90    64    65    1
    91    28    27    2
    92    82    84   ar
    93    90    92    1
    94    90    91    1
    95    50    51    1
    96   146   144    1
    97   140   141    1
    98   109   110    1
    99    27    26    1
   100    30    31    1
   101    30    29    1
   102    31    32    1
   103   141   144    1
   104   141   142    1
   105   144   145    1
   106    51    52    2
   107   110   112   ar
   108   110   111   ar
   109   112   114   ar
   110    53    52    1
   111    26    29    1
   112    26    25    1
   113   111   113   ar
   114    52    54    1
   115   181   179    1
   116    20    19    2
   117   114   115   ar
   118     7     6    1
   119   113   115   ar
   120   142   143    2
   121   115   116    1
   122    25    19   am
   123   180   179    1
   124    19    18    1
   125   173   172    1
   126     5     6    1
   127     5     2    1
   128   179   178    1
   129   161   159    1
   130   153   152    1
   131     6     8    1
   132   170   172   ar
   133   170   168   ar
   134   211   210    2
   135    12    11    2
   136     3     2    1
   137     3     4    2
   138    24    22   am
   139   172   171   ar
   140   212   209    1
   141   178   175    1
   142    18    21    1
   143    18    17    1
   144   160   159    1
   145   154   152    1
   146     2     1    1
   147    22    23    2
   148    22    21    1
   149   159   156    1
   150    11    10    1
   151   188   186    1
   152   152   151    1
   153   210   209    1
   154   168   167   ar
   155   209   208    1
   156   151   148    1
   157   207   205    1
   158   187   186    1
   159   175   176    1
   160   175   174    1
   161   171   169   ar
   162   177   176    2
   163    15    13    1
   164   148   147    1
   165   148   149    1
   166   186   183    1
   167   156   157    1
   168   156   155    1
   169   158   157    2
   170    13    10    1
   171    13    14    1
   172    10     9    1
   173   157   162   am
   174   167   169   ar
   175   167   166    1
   176   206   205    1
   177   204   203    2
   178   205   202    1
   179   202   203    1
   180   202   201    1
   181   162   163    1
   182   150   149    2
   183   183   182    1
   184   183   184    1
   185   199   198    2
   186   163   166    1
   187   163   164    1
   188    14    16    1
   189   195   194    1
   190   195   189    1
   191   201   198   am
   192   198   197    1
   193   184   189   am
   194   184   185    2
   195   194   193    1
   196   165   164    2
   197   189   190    1
   198   192   191    2
   199   200   197    1
   200   197   196    1
   201   191   190    1
   202   190   193    1
