@<TRIPOS>MOLECULE
tmp/1kn2A00.pdb
 101 98 0 0 0
SMALL
GASTEIGER

@<TRIPOS>ATOM
      1  N         20.2460   27.9640   62.4750 N.3    31  TYR31      -0.1241
      2  CA        20.7140   28.6730   61.3200 C.3    31  TYR31       0.1605
      3  C         22.1770   28.2780   61.0750 C.2    31  TYR31       0.2264
      4  O         22.8620   27.7800   61.9810 O.2    31  TYR31      -0.2867
      5  CB        20.6060   30.1820   61.5880 C.3    31  TYR31       0.0534
      6  CG        20.7910   31.0340   60.3600 C.ar   31  TYR31      -0.0201
      7  CD1       19.8720   30.9900   59.3140 C.ar   31  TYR31      -0.0009
      8  CD2       21.8760   31.8990   60.2480 C.ar   31  TYR31      -0.0009
      9  CE1       20.0330   31.7890   58.1820 C.ar   31  TYR31       0.0417
     10  CE2       22.0470   32.7010   59.1210 C.ar   31  TYR31       0.0417
     11  CZ        21.1130   32.6360   58.0910 C.ar   31  TYR31       0.1957
     12  OH        21.2680   33.4240   56.9700 O.3    31  TYR31      -0.2866
     13  N         17.0320   31.4180   65.4220 N.3    37  TYR37      -0.1241
     14  CA        16.1290   32.5600   65.3650 C.3    37  TYR37       0.1605
     15  C         14.6640   32.2040   65.6520 C.2    37  TYR37       0.2264
     16  O         13.8560   32.0990   64.7260 O.2    37  TYR37      -0.2867
     17  CB        16.2460   33.2490   64.0030 C.3    37  TYR37       0.0534
     18  CG        17.6210   33.8170   63.7080 C.ar   37  TYR37      -0.0201
     19  CD1       18.4040   33.3020   62.6790 C.ar   37  TYR37      -0.0009
     20  CD2       18.1390   34.8550   64.4680 C.ar   37  TYR37      -0.0009
     21  CE1       19.6700   33.8040   62.4250 C.ar   37  TYR37       0.0417
     22  CE2       19.4050   35.3690   64.2230 C.ar   37  TYR37       0.0417
     23  CZ        20.1690   34.8410   63.2020 C.ar   37  TYR37       0.1957
     24  OH        21.4340   35.3600   62.9770 O.3    37  TYR37      -0.2866
     25  N         11.4330   33.3910   67.9920 N.3    39  ASN39      -0.1240
     26  CA        10.8910   34.4990   68.7780 C.3    39  ASN39       0.1653
     27  C          9.5040   34.1750   69.3500 C.2    39  ASN39       0.2266
     28  O          8.7950   33.2980   68.8400 O.2    39  ASN39      -0.2867
     29  CB        10.7450   35.7540   67.8930 C.3    39  ASN39       0.1155
     30  CG        12.0180   36.1170   67.1370 C.2    39  ASN39       0.2627
     31  OD1       12.9590   36.6830   67.7020 O.2    39  ASN39      -0.2716
     32  ND2       12.0360   35.8300   65.8420 N.am   39  ASN39      -0.0877
     33  N          5.9860   36.2130   70.6290 N.3    41  LEU41      -0.1245
     34  CA         5.2700   37.4840   70.6370 C.3    41  LEU41       0.1561
     35  C          4.0100   37.3360   71.4740 C.2    41  LEU41       0.2260
     36  O          3.4690   36.2440   71.6070 O.2    41  LEU41      -0.2867
     37  CB         4.8270   37.8970   69.2210 C.3    41  LEU41       0.0270
     38  CG         5.7340   37.9110   67.9940 C.3    41  LEU41       0.0019
     39  CD1        4.9870   38.6090   66.8730 C.3    41  LEU41       0.0001
     40  CD2        7.0220   38.6340   68.2800 C.3    41  LEU41       0.0001
     41  N          7.4050   32.5430   66.4080 N.3    94  VAL94      -0.1231
     42  CA         7.6610   32.8850   65.0100 C.3    94  VAL94       0.1692
     43  C          9.1390   32.6490   64.7170 C.2    94  VAL94       0.2592
     44  O          9.9940   33.0530   65.5030 O.2    94  VAL94      -0.2718
     45  CB         7.2130   34.3590   64.6770 C.3    94  VAL94       0.0266
     46  CG1        7.9230   35.3840   65.5530 C.3    94  VAL94       0.0020
     47  CG2        7.4250   34.6670   63.2090 C.3    94  VAL94       0.0020
     48  N          9.4200   31.9310   63.6320 N.am   95  GLN95      -0.1966
     49  CA        10.7880   31.6080   63.2350 C.3    95  GLN95       0.1733
     50  C         11.2900   32.5000   62.1040 C.2    95  GLN95       0.2617
     51  O         10.5290   32.8740   61.1980 O.2    95  GLN95      -0.2715
     52  CB        10.9080   30.1250   62.8280 C.3    95  GLN95       0.0408
     53  CG        10.1940   29.7040   61.5230 C.3    95  GLN95       0.0908
     54  CD        11.0080   29.9750   60.2500 C.2    95  GLN95       0.2608
     55  OE1       12.2350   30.0440   60.2900 O.2    95  GLN95      -0.2717
     56  NE2       10.3220   30.1130   59.1190 N.am   95  GLN95      -0.0878
     57  N         12.5750   32.8370   62.1730 N.am   96  GLY96      -0.1940
     58  CA        13.2050   33.6550   61.1550 C.3    96  GLY96       0.2014
     59  C         14.4390   32.9750   60.5630 C.2    96  GLY96       0.2639
     60  O         15.1910   33.6260   59.8480 O.2    96  GLY96      -0.2714
     61  N         14.6470   31.6840   60.8440 N.am   97  THR97      -0.1950
     62  CA        15.7940   30.9220   60.3430 C.3    97  THR97       0.1897
     63  C         15.6590   30.5160   58.8890 C.2    97  THR97       0.2313
     64  O         16.6590   30.3690   58.1640 O.2    97  THR97      -0.2863
     65  CB        15.9960   29.6280   61.1800 C.3    97  THR97       0.1794
     66  OG1       16.4000   29.9960   62.4970 O.3    97  THR97      -0.2208
     67  CG2       17.0650   28.7230   60.5780 C.3    97  THR97       0.0378
     68  N         13.5280   31.1720   55.1830 N.3    99  PHE99      -0.1241
     69  CA        12.7320   32.1450   54.4420 C.3    99  PHE99       0.1605
     70  C         11.6040   31.4070   53.6950 C.2    99  PHE99       0.2264
     71  O         11.8410   30.3750   53.0650 O.2    99  PHE99      -0.2867
     72  CB        13.6570   32.9270   53.4900 C.3    99  PHE99       0.0534
     73  CG        13.0540   34.1780   52.9400 C.ar   99  PHE99      -0.0203
     74  CD1       13.3280   35.4110   53.5310 C.ar   99  PHE99      -0.0042
     75  CD2       12.2140   34.1320   51.8230 C.ar   99  PHE99      -0.0042
     76  CE1       12.7690   36.5930   53.0150 C.ar   99  PHE99      -0.0003
     77  CE2       11.6500   35.2930   51.2970 C.ar   99  PHE99      -0.0003
     78  CZ        11.9260   36.5300   51.8900 C.ar   99  PHE99      -0.0000
     79  N          9.6420   33.8820   56.7780 N.3   101  TYR101     -0.1241
     80  CA         9.4110   33.7650   58.2190 C.3   101  TYR101      0.1605
     81  C          7.9770   33.2840   58.4140 C.2   101  TYR101      0.2264
     82  O          7.0800   33.7470   57.7190 O.2   101  TYR101     -0.2867
     83  CB         9.6050   35.1180   58.8990 C.3   101  TYR101      0.0534
     84  CG        10.8970   35.8120   58.5430 C.ar  101  TYR101     -0.0201
     85  CD1       12.0690   35.0920   58.2990 C.ar  101  TYR101     -0.0009
     86  CD2       10.9360   37.1890   58.4050 C.ar  101  TYR101     -0.0009
     87  CE1       13.2400   35.7330   57.9210 C.ar  101  TYR101      0.0417
     88  CE2       12.0860   37.8350   58.0280 C.ar  101  TYR101      0.0417
     89  CZ        13.2280   37.1090   57.7860 C.ar  101  TYR101      0.1957
     90  OH        14.3340   37.8010   57.3960 O.3   101  TYR101     -0.2866
     91  N          4.7680   31.8670   61.2660 N.3   103  PHE103     -0.1241
     92  CA         4.1950   31.9240   62.6060 C.3   103  PHE103      0.1605
     93  C          3.4720   30.6550   63.0100 C.2   103  PHE103      0.2264
     94  O          3.0180   29.8780   62.1640 O.2   103  PHE103     -0.2867
     95  CB         3.1450   33.0470   62.6880 C.3   103  PHE103      0.0534
     96  CG         3.6870   34.4360   62.4910 C.ar  103  PHE103     -0.0203
     97  CD1        3.9510   34.9270   61.2130 C.ar  103  PHE103     -0.0042
     98  CD2        3.8490   35.2850   63.5790 C.ar  103  PHE103     -0.0042
     99  CE1        4.3590   36.2390   61.0170 C.ar  103  PHE103     -0.0003
    100  CE2        4.2570   36.6020   63.3970 C.ar  103  PHE103     -0.0003
    101  CZ         4.5110   37.0800   62.1070 C.ar  103  PHE103     -0.0000
@<TRIPOS>BOND
     1    77    75   ar
     2    77    78   ar
     3    75    73   ar
     4    78    76   ar
     5    73    72    1
     6    73    74   ar
     7    76    74   ar
     8    71    70    2
     9    72    69    1
    10    70    69    1
    11    69    68    1
    12    79    80    1
    13    12    11    1
    14    90    89    1
    15    82    81    2
    16    89    87   ar
    17    89    88   ar
    18    87    85   ar
    19    88    86   ar
    20    11     9   ar
    21    11    10   ar
    22    64    63    2
    23     9     7   ar
    24    80    81    1
    25    80    83    1
    26    85    84   ar
    27    86    84   ar
    28    84    83    1
    29    63    62    1
    30    56    54   am
    31    10     8   ar
    32     7     6   ar
    33    60    59    2
    34     8     6   ar
    35    54    55    2
    36    54    53    1
    37    62    61    1
    38    62    65    1
    39     6     5    1
    40    59    61   am
    41    59    58    1
    42    67    65    1
    43    99    97   ar
    44    99   101   ar
    45     3     2    1
    46     3     4    2
    47    58    57    1
    48    65    66    1
    49    51    50    2
    50    97    96   ar
    51    91    92    1
    52     2     5    1
    53     2     1    1
    54    53    52    1
    55    50    57   am
    56    50    49    1
    57   101   100   ar
    58    94    93    2
    59    21    19   ar
    60    21    23   ar
    61    96    95    1
    62    96    98   ar
    63    92    95    1
    64    92    93    1
    65    19    18   ar
    66    52    49    1
    67    24    23    1
    68    23    22   ar
    69    47    45    1
    70    49    48    1
    71   100    98   ar
    72    48    43   am
    73    18    17    1
    74    18    20   ar
    75    17    14    1
    76    22    20   ar
    77    45    42    1
    78    45    46    1
    79    43    42    1
    80    43    44    2
    81    16    15    2
    82    42    41    1
    83    14    13    1
    84    14    15    1
    85    32    30   am
    86    39    38    1
    87    30    31    2
    88    30    29    1
    89    29    26    1
    90    25    26    1
    91    38    40    1
    92    38    37    1
    93    26    27    1
    94    28    27    2
    95    37    34    1
    96    33    34    1
    97    34    35    1
    98    35    36    2
