@<TRIPOS>MOLECULE
tmp/1kndA00.pdb
 118 113 0 0 0
SMALL
GASTEIGER

@<TRIPOS>ATOM
      1  N         24.0030  -12.0420   73.4330 N.3   145  HIS145     -0.1241
      2  CA        23.9330  -12.9520   74.5720 C.3   145  HIS145      0.1621
      3  C         25.1660  -13.8470   74.6780 C.2   145  HIS145      0.2264
      4  O         26.0100  -13.8720   73.7830 O.2   145  HIS145     -0.2867
      5  CB        22.6460  -13.8170   74.5370 C.3   145  HIS145      0.0745
      6  CG        22.6160  -14.8840   73.4750 C.ar  145  HIS145      0.0817
      7  ND1       21.5820  -15.0490   72.5810 N.ar  145  HIS145     -0.2268
      8  CD2       23.4880  -15.8840   73.1960 C.ar  145  HIS145      0.1154
      9  CE1       21.8460  -16.0950   71.7900 C.ar  145  HIS145      0.1986
     10  NE2       22.9910  -16.6500   72.1180 N.ar  145  HIS145     -0.2212
     11  N         26.4950  -17.7310   76.7950 N.3   147  VAL147     -0.1245
     12  CA        26.1450  -18.8860   77.5980 C.3   147  VAL147      0.1561
     13  C         27.2310  -19.0820   78.6400 C.2   147  VAL147      0.2260
     14  O         28.3790  -19.3480   78.3020 O.2   147  VAL147     -0.2867
     15  CB        26.0360  -20.1660   76.7260 C.3   147  VAL147      0.0252
     16  CG1       25.6740  -21.3810   77.5960 C.3   147  VAL147      0.0019
     17  CG2       25.0100  -19.9660   75.6220 C.3   147  VAL147      0.0019
     18  N         16.1320  -26.0550   77.7030 N.3   172  ILE172     -0.1245
     19  CA        16.3820  -27.0780   76.7000 C.3   172  ILE172      0.1561
     20  C         17.1500  -28.2030   77.4050 C.2   172  ILE172      0.2260
     21  O         18.1640  -27.9380   78.0640 O.2   172  ILE172     -0.2867
     22  CB        17.2180  -26.5610   75.4910 C.3   172  ILE172      0.0252
     23  CG1       16.4740  -25.4440   74.7480 C.3   172  ILE172      0.0019
     24  CG2       17.4710  -27.7050   74.5010 C.3   172  ILE172      0.0019
     25  CD1       17.1970  -24.9480   73.4990 C.3   172  ILE172      0.0001
     26  N         19.5230  -30.7800   77.1150 N.3   174  MET174     -0.1245
     27  CA        20.6180  -31.1640   76.2430 C.3   174  MET174      0.1570
     28  C         21.0890  -32.5840   76.5000 C.2   174  MET174      0.2261
     29  O         21.6750  -32.8670   77.5440 O.2   174  MET174     -0.2867
     30  CB        21.8090  -30.2240   76.4560 C.3   174  MET174      0.0387
     31  CG        21.5450  -28.7430   76.2330 C.3   174  MET174      0.0595
     32  SD        21.3190  -28.3530   74.5110 S.3   174  MET174     -0.1393
     33  CE        22.8780  -28.8540   73.8420 C.3   174  MET174      0.0692
     34  N         17.5940  -20.5040   79.6200 N.3   186  PHE186     -0.1241
     35  CA        17.6820  -19.2730   78.8290 C.3   186  PHE186      0.1605
     36  C         16.9050  -18.1620   79.5220 C.2   186  PHE186      0.2264
     37  O         15.7090  -18.2990   79.7760 O.2   186  PHE186     -0.2867
     38  CB        17.1750  -19.5380   77.4140 C.3   186  PHE186      0.0534
     39  CG        17.9750  -20.5900   76.7020 C.ar  186  PHE186     -0.0203
     40  CD1       17.7400  -21.9430   76.9480 C.ar  186  PHE186     -0.0042
     41  CD2       19.0340  -20.2320   75.8650 C.ar  186  PHE186     -0.0042
     42  CE1       18.5480  -22.9140   76.3760 C.ar  186  PHE186     -0.0003
     43  CE2       19.8560  -21.1980   75.2850 C.ar  186  PHE186     -0.0003
     44  CZ        19.6180  -22.5360   75.5380 C.ar  186  PHE186     -0.0000
     45  N         16.9470  -14.2250   74.8840 N.3   194  HIS194     -0.1241
     46  CA        17.7990  -14.4370   76.0370 C.3   194  HIS194      0.1621
     47  C         19.0390  -13.6000   75.9150 C.2   194  HIS194      0.2264
     48  O         19.5570  -13.4100   74.8140 O.2   194  HIS194     -0.2867
     49  CB        18.1390  -15.9200   76.2980 C.3   194  HIS194      0.0745
     50  CG        18.9310  -16.5870   75.2150 C.ar  194  HIS194      0.0817
     51  ND1       18.3670  -17.0330   74.0370 N.ar  194  HIS194     -0.2268
     52  CD2       20.2210  -17.0000   75.1880 C.ar  194  HIS194      0.1154
     53  CE1       19.2670  -17.7060   73.3400 C.ar  194  HIS194      0.1986
     54  NE2       20.4010  -17.6990   74.0170 N.ar  194  HIS194     -0.2212
     55  N         29.7120  -19.6800   74.3010 N.3   209  HIS209     -0.1241
     56  CA        29.7730  -18.7690   73.1610 C.3   209  HIS209      0.1621
     57  C         29.1080  -17.4650   73.5050 C.2   209  HIS209      0.2264
     58  O         28.4500  -17.3510   74.5480 O.2   209  HIS209     -0.2867
     59  CB        29.0370  -19.3510   71.9360 C.3   209  HIS209      0.0745
     60  CG        27.5400  -19.4010   72.0780 C.ar  209  HIS209      0.0817
     61  ND1       26.8600  -20.4510   72.6560 N.ar  209  HIS209     -0.2268
     62  CD2       26.5810  -18.5430   71.6490 C.ar  209  HIS209      0.1154
     63  CE1       25.5480  -20.2200   72.5540 C.ar  209  HIS209      0.1986
     64  NE2       25.3120  -19.0700   71.9550 N.ar  209  HIS209     -0.2212
     65  N         17.5590  -22.2630   65.7250 N.3   240  HIS240     -0.1241
     66  CA        17.2740  -22.7590   67.0670 C.3   240  HIS240      0.1621
     67  C         15.7850  -22.9190   67.3220 C.2   240  HIS240      0.2264
     68  O         14.9530  -22.1930   66.7670 O.2   240  HIS240     -0.2867
     69  CB        17.8750  -21.8530   68.1310 C.3   240  HIS240      0.0745
     70  CG        19.3620  -21.9390   68.2120 C.ar  240  HIS240      0.0817
     71  ND1       20.0240  -23.1100   68.5230 N.ar  240  HIS240     -0.2268
     72  CD2       20.3220  -21.0080   68.0030 C.ar  240  HIS240      0.1154
     73  CE1       21.3280  -22.8950   68.5050 C.ar  240  HIS240      0.1986
     74  NE2       21.5330  -21.6250   68.1950 N.ar  240  HIS240     -0.2212
     75  N         14.2860  -22.5190   70.3430 N.3   242  ASN242     -0.1225
     76  CA        13.7450  -21.5720   71.2920 C.3   242  ASN242      0.1785
     77  C         13.7050  -20.1160   70.8750 C.2   242  ASN242      0.2597
     78  O         12.6340  -19.5010   70.9360 O.2   242  ASN242     -0.2718
     79  CB        14.3610  -21.7700   72.6850 C.3   242  ASN242      0.1169
     80  CG        15.8570  -21.5370   72.7230 C.2   242  ASN242      0.2627
     81  OD1       16.5320  -21.4900   71.6950 O.2   242  ASN242     -0.2716
     82  ND2       16.3810  -21.3780   73.9320 N.am  242  ASN242     -0.0877
     83  N         14.8350  -19.5540   70.4480 N.am  243  ASP243     -0.1974
     84  CA        14.8290  -18.1570   70.0160 C.3   243  ASP243      0.1709
     85  C         14.5840  -17.9940   68.5090 C.2   243  ASP243      0.2293
     86  O         14.3930  -16.8840   68.0210 O.2   243  ASP243     -0.2864
     87  CB        16.0970  -17.4090   70.4780 C.3   243  ASP243      0.1436
     88  CG        17.3890  -17.9260   69.8440 C.2   243  ASP243      0.3671
     89  OD1       17.3490  -18.8310   68.9780 O.co2 243  ASP243     -0.2456
     90  OD2       18.4550  -17.4060   70.2310 O.co2 243  ASP243     -0.2456
     91  N         28.0590  -21.2200   64.0060 N.3   249  TYR249     -0.1241
     92  CA        28.9950  -21.0170   65.1170 C.3   249  TYR249      0.1605
     93  C         30.3940  -21.1430   64.5460 C.2   249  TYR249      0.2264
     94  O         30.6170  -21.8940   63.5860 O.2   249  TYR249     -0.2867
     95  CB        28.8190  -22.0700   66.2050 C.3   249  TYR249      0.0534
     96  CG        27.5450  -21.9470   66.9860 C.ar  249  TYR249     -0.0201
     97  CD1       26.3180  -22.2630   66.4090 C.ar  249  TYR249     -0.0009
     98  CD2       27.5670  -21.5480   68.3130 C.ar  249  TYR249     -0.0009
     99  CE1       25.1440  -22.1840   67.1450 C.ar  249  TYR249      0.0417
    100  CE2       26.4090  -21.4650   69.0520 C.ar  249  TYR249      0.0417
    101  CZ        25.1990  -21.7890   68.4640 C.ar  249  TYR249      0.1957
    102  OH        24.0590  -21.7490   69.2250 O.3   249  TYR249     -0.2866
    103  N         28.5960  -17.0720   67.9640 N.3   259  GLU259     -0.1245
    104  CA        27.4190  -17.4150   67.1940 C.3   259  GLU259      0.1567
    105  C         27.0810  -16.1370   66.4410 C.2   259  GLU259      0.2260
    106  O         27.0750  -15.0540   67.0200 O.2   259  GLU259     -0.2867
    107  CB        26.2700  -17.8000   68.1130 C.3   259  GLU259      0.0388
    108  CG        25.0140  -18.1500   67.3520 C.3   259  GLU259      0.1160
    109  CD        23.8520  -18.4700   68.2490 C.2   259  GLU259      0.3649
    110  OE1       22.8340  -18.9730   67.7340 O.co2 259  GLU259     -0.2457
    111  OE2       23.9390  -18.2480   69.4710 O.co2 259  GLU259     -0.2457
    112  N         17.9570  -28.4440   70.6710 N.3   279  PRO279     -0.2116
    113  CA        18.3160  -27.0260   70.5810 C.3   279  PRO279      0.1372
    114  C         18.1320  -26.4520   69.1780 C.2   279  PRO279      0.2244
    115  O         18.1720  -25.2370   68.9970 O.2   279  PRO279     -0.2868
    116  CB        19.7880  -27.0220   70.9970 C.3   279  PRO279      0.0268
    117  CG        20.2880  -28.3330   70.4710 C.3   279  PRO279      0.0207
    118  CD        19.1560  -29.2950   70.8040 C.3   279  PRO279      0.0892
@<TRIPOS>BOND
     1    94    93    2
     2    91    92    1
     3    93    92    1
     4    92    95    1
     5    65    66    1
     6    95    96    1
     7    97    96   ar
     8    97    99   ar
     9   105   106    2
    10   105   104    1
    11    68    67    2
    12    96    98   ar
    13    66    67    1
    14    66    69    1
    15    99   101   ar
    16   104   103    1
    17   104   107    1
    18   108   107    1
    19   108   109    1
    20   110   109   ar
    21    72    74   ar
    22    72    70   ar
    23    86    85    2
    24    69    70    1
    25    74    73   ar
    26    70    71   ar
    27   109   111   ar
    28    98   100   ar
    29   101   100   ar
    30   101   102    1
    31    73    71   ar
    32    85    84    1
    33    89    88   ar
    34   115   114    2
    35   114   113    1
    36    88    90   ar
    37    88    87    1
    38    84    83    1
    39    84    87    1
    40    75    76    1
    41    83    77   am
    42   117   118    1
    43   117   116    1
    44   113   112    1
    45   113   116    1
    46   112   118    1
    47    77    78    2
    48    77    76    1
    49    76    79    1
    50    62    64   ar
    51    62    60   ar
    52    81    80    2
    53     9    10   ar
    54     9     7   ar
    55    59    60    1
    56    59    56    1
    57    64    63   ar
    58    60    61   ar
    59    10     8   ar
    60    63    61   ar
    61     7     6   ar
    62    79    80    1
    63    80    82   am
    64    56    57    1
    65    56    55    1
    66     8     6   ar
    67    53    54   ar
    68    53    51   ar
    69     1     2    1
    70     6     5    1
    71    25    23    1
    72    57    58    2
    73     4     3    2
    74    33    32    1
    75    54    52   ar
    76    51    50   ar
    77    24    22    1
    78    32    31    1
    79     5     2    1
    80     2     3    1
    81    23    22    1
    82    48    47    2
    83    45    46    1
    84    52    50   ar
    85    50    49    1
    86    43    44   ar
    87    43    41   ar
    88    22    19    1
    89    44    42   ar
    90    17    15    1
    91    41    39   ar
    92    47    46    1
    93    46    49    1
    94    31    30    1
    95    27    30    1
    96    27    28    1
    97    27    26    1
    98    42    40   ar
    99    28    29    2
   100    19    20    1
   101    19    18    1
   102    39    40   ar
   103    39    38    1
   104    15    16    1
   105    15    12    1
   106    11    12    1
   107    20    21    2
   108    38    35    1
   109    12    13    1
   110    14    13    2
   111    35    36    1
   112    35    34    1
   113    36    37    2
