@<TRIPOS>MOLECULE
tmp/1knfA00.pdb
 139 135 0 0 0
SMALL
GASTEIGER

@<TRIPOS>ATOM
      1  N         24.0410  -12.0540   73.4960 N.3   145  HIS145     -0.1241
      2  CA        23.9950  -12.9540   74.6490 C.3   145  HIS145      0.1621
      3  C         25.2270  -13.8470   74.7480 C.2   145  HIS145      0.2264
      4  O         26.0650  -13.8700   73.8480 O.2   145  HIS145     -0.2867
      5  CB        22.7110  -13.8370   74.6370 C.3   145  HIS145      0.0745
      6  CG        22.6680  -14.8810   73.5550 C.ar  145  HIS145      0.0817
      7  ND1       21.6520  -14.9950   72.6370 N.ar  145  HIS145     -0.2268
      8  CD2       23.5080  -15.9070   73.2760 C.ar  145  HIS145      0.1154
      9  CE1       21.8940  -16.0430   71.8400 C.ar  145  HIS145      0.1986
     10  NE2       23.0110  -16.6430   72.1880 N.ar  145  HIS145     -0.2212
     11  N         26.5380  -17.7480   76.8250 N.3   147  VAL147     -0.1245
     12  CA        26.1990  -18.8930   77.6370 C.3   147  VAL147      0.1561
     13  C         27.2900  -19.0780   78.6820 C.2   147  VAL147      0.2260
     14  O         28.4460  -19.3070   78.3450 O.2   147  VAL147     -0.2867
     15  CB        26.0720  -20.1790   76.7760 C.3   147  VAL147      0.0252
     16  CG1       25.7250  -21.3930   77.6640 C.3   147  VAL147      0.0019
     17  CG2       25.0170  -19.9770   75.7000 C.3   147  VAL147      0.0019
     18  N         16.1520  -26.0970   77.7870 N.3   172  ILE172     -0.1245
     19  CA        16.4120  -27.1120   76.7780 C.3   172  ILE172      0.1561
     20  C         17.2010  -28.2330   77.4640 C.2   172  ILE172      0.2260
     21  O         18.2230  -27.9720   78.1150 O.2   172  ILE172     -0.2867
     22  CB        17.2370  -26.5740   75.5760 C.3   172  ILE172      0.0252
     23  CG1       16.4640  -25.4750   74.8380 C.3   172  ILE172      0.0019
     24  CG2       17.5230  -27.7130   74.5830 C.3   172  ILE172      0.0019
     25  CD1       17.1280  -25.0140   73.5440 C.3   172  ILE172      0.0001
     26  N         19.5920  -30.7690   77.1460 N.3   174  MET174     -0.1245
     27  CA        20.6850  -31.1390   76.2690 C.3   174  MET174      0.1570
     28  C         21.1320  -32.5670   76.5240 C.2   174  MET174      0.2261
     29  O         21.6770  -32.8690   77.5900 O.2   174  MET174     -0.2867
     30  CB        21.8850  -30.2080   76.4930 C.3   174  MET174      0.0387
     31  CG        21.6350  -28.7200   76.2920 C.3   174  MET174      0.0595
     32  SD        21.3360  -28.2970   74.5880 S.3   174  MET174     -0.1393
     33  CE        22.8720  -28.6990   73.8510 C.3   174  MET174      0.0692
     34  N         17.6450  -20.5190   79.6980 N.3   186  PHE186     -0.1241
     35  CA        17.7340  -19.2780   78.9150 C.3   186  PHE186      0.1605
     36  C         16.9570  -18.1660   79.6120 C.2   186  PHE186      0.2264
     37  O         15.7590  -18.3020   79.8600 O.2   186  PHE186     -0.2867
     38  CB        17.2250  -19.5260   77.4990 C.3   186  PHE186      0.0534
     39  CG        18.0060  -20.5840   76.7860 C.ar  186  PHE186     -0.0203
     40  CD1       17.7740  -21.9360   77.0530 C.ar  186  PHE186     -0.0042
     41  CD2       19.0430  -20.2370   75.9230 C.ar  186  PHE186     -0.0042
     42  CE1       18.5710  -22.9260   76.4730 C.ar  186  PHE186     -0.0003
     43  CE2       19.8450  -21.2170   75.3380 C.ar  186  PHE186     -0.0003
     44  CZ        19.6100  -22.5620   75.6150 C.ar  186  PHE186     -0.0000
     45  N         16.9750  -14.2610   74.9300 N.3   194  HIS194     -0.1241
     46  CA        17.8460  -14.4680   76.0790 C.3   194  HIS194      0.1621
     47  C         19.0850  -13.6260   75.9530 C.2   194  HIS194      0.2264
     48  O         19.6070  -13.4370   74.8510 O.2   194  HIS194     -0.2867
     49  CB        18.1900  -15.9470   76.3540 C.3   194  HIS194      0.0745
     50  CG        18.9820  -16.6240   75.2780 C.ar  194  HIS194      0.0817
     51  ND1       18.4320  -17.0240   74.0780 N.ar  194  HIS194     -0.2268
     52  CD2       20.2620  -17.0680   75.2640 C.ar  194  HIS194      0.1154
     53  CE1       19.3310  -17.6900   73.3760 C.ar  194  HIS194      0.1986
     54  NE2       20.4490  -17.7290   74.0740 N.ar  194  HIS194     -0.2212
     55  N         28.0150  -27.3350   81.5870 N.3   201  PHE201     -0.1241
     56  CA        28.7670  -28.0670   80.5640 C.3   201  PHE201      0.1605
     57  C         30.1830  -28.2380   81.0450 C.2   201  PHE201      0.2264
     58  O         30.7130  -27.3680   81.7180 O.2   201  PHE201     -0.2867
     59  CB        28.8430  -27.2910   79.2470 C.3   201  PHE201      0.0534
     60  CG        27.5400  -27.1830   78.5220 C.ar  201  PHE201     -0.0203
     61  CD1       27.2950  -26.0960   77.6870 C.ar  201  PHE201     -0.0042
     62  CD2       26.5610  -28.1660   78.6610 C.ar  201  PHE201     -0.0042
     63  CE1       26.0890  -25.9900   76.9980 C.ar  201  PHE201     -0.0003
     64  CE2       25.3510  -28.0720   77.9800 C.ar  201  PHE201     -0.0003
     65  CZ        25.1140  -26.9790   77.1450 C.ar  201  PHE201     -0.0000
     66  N         30.4480  -20.7210   76.8330 N.3   208  HIS208     -0.1226
     67  CA        30.4970  -21.6050   75.6850 C.3   208  HIS208      0.1752
     68  C         30.6340  -20.7150   74.4430 C.2   208  HIS208      0.2596
     69  O         31.4480  -20.9780   73.5630 O.2   208  HIS208     -0.2718
     70  CB        29.2270  -22.4620   75.5790 C.3   208  HIS208      0.0759
     71  CG        29.1010  -23.1810   74.2660 C.ar  208  HIS208      0.0818
     72  ND1       28.0670  -22.9460   73.3850 N.ar  208  HIS208     -0.2268
     73  CD2       29.9300  -24.0510   73.6420 C.ar  208  HIS208      0.1154
     74  CE1       28.2740  -23.6250   72.2680 C.ar  208  HIS208      0.1986
     75  NE2       29.3970  -24.3040   72.4000 N.ar  208  HIS208     -0.2212
     76  N         29.8220  -19.6670   74.3650 N.am  209  HIS209     -0.1975
     77  CA        29.8730  -18.7550   73.2210 C.3   209  HIS209      0.1656
     78  C         29.1920  -17.4580   73.5530 C.2   209  HIS209      0.2291
     79  O         28.5170  -17.3480   74.5780 O.2   209  HIS209     -0.2864
     80  CB        29.1480  -19.3430   71.9940 C.3   209  HIS209      0.0771
     81  CG        27.6540  -19.4290   72.1400 C.ar  209  HIS209      0.0820
     82  ND1       26.9990  -20.4930   72.7180 N.ar  209  HIS209     -0.2267
     83  CD2       26.6740  -18.5840   71.7270 C.ar  209  HIS209      0.1154
     84  CE1       25.6840  -20.2840   72.6360 C.ar  209  HIS209      0.1986
     85  NE2       25.4220  -19.1340   72.0450 N.ar  209  HIS209     -0.2212
     86  N         17.5670  -22.2950   65.7680 N.3   240  HIS240     -0.1241
     87  CA        17.2650  -22.7730   67.1110 C.3   240  HIS240      0.1621
     88  C         15.7770  -22.9370   67.3660 C.2   240  HIS240      0.2264
     89  O         14.9390  -22.1990   66.8190 O.2   240  HIS240     -0.2867
     90  CB        17.8430  -21.8410   68.1580 C.3   240  HIS240      0.0745
     91  CG        19.3290  -21.9150   68.2600 C.ar  240  HIS240      0.0817
     92  ND1       19.9970  -23.0690   68.6100 N.ar  240  HIS240     -0.2268
     93  CD2       20.2790  -20.9790   68.0420 C.ar  240  HIS240      0.1154
     94  CE1       21.2980  -22.8410   68.6020 C.ar  240  HIS240      0.1986
     95  NE2       21.4900  -21.5780   68.2610 N.ar  240  HIS240     -0.2212
     96  N         14.2630  -22.5380   70.3840 N.3   242  ASN242     -0.1225
     97  CA        13.7100  -21.5920   71.3280 C.3   242  ASN242      0.1785
     98  C         13.6590  -20.1340   70.9110 C.2   242  ASN242      0.2597
     99  O         12.5880  -19.5200   70.9690 O.2   242  ASN242     -0.2718
    100  CB        14.3320  -21.7840   72.7200 C.3   242  ASN242      0.1169
    101  CG        15.8320  -21.5610   72.7470 C.2   242  ASN242      0.2627
    102  OD1       16.5010  -21.4880   71.7060 O.2   242  ASN242     -0.2716
    103  ND2       16.3740  -21.4500   73.9560 N.am  242  ASN242     -0.0877
    104  N         14.7910  -19.5730   70.4820 N.am  243  ASP243     -0.1974
    105  CA        14.7960  -18.1790   70.0420 C.3   243  ASP243      0.1709
    106  C         14.5710  -18.0080   68.5340 C.2   243  ASP243      0.2293
    107  O         14.3880  -16.8980   68.0570 O.2   243  ASP243     -0.2864
    108  CB        16.0570  -17.4280   70.5310 C.3   243  ASP243      0.1436
    109  CG        17.3630  -17.9080   69.8850 C.2   243  ASP243      0.3671
    110  OD1       17.3510  -18.8150   69.0170 O.co2 243  ASP243     -0.2456
    111  OD2       18.4160  -17.3560   70.2620 O.co2 243  ASP243     -0.2456
    112  N         28.0770  -21.2640   64.0610 N.3   249  TYR249     -0.1241
    113  CA        29.0030  -21.0550   65.1760 C.3   249  TYR249      0.1605
    114  C         30.4020  -21.1790   64.6040 C.2   249  TYR249      0.2264
    115  O         30.6200  -21.9040   63.6260 O.2   249  TYR249     -0.2867
    116  CB        28.8250  -22.1120   66.2670 C.3   249  TYR249      0.0534
    117  CG        27.5610  -21.9800   67.0660 C.ar  249  TYR249     -0.0201
    118  CD1       26.3190  -22.2730   66.5010 C.ar  249  TYR249     -0.0009
    119  CD2       27.6060  -21.6020   68.3970 C.ar  249  TYR249     -0.0009
    120  CE1       25.1520  -22.1990   67.2580 C.ar  249  TYR249      0.0417
    121  CE2       26.4540  -21.5260   69.1560 C.ar  249  TYR249      0.0417
    122  CZ        25.2310  -21.8290   68.5810 C.ar  249  TYR249      0.1957
    123  OH        24.1030  -21.8150   69.3600 O.3   249  TYR249     -0.2866
    124  N         28.6570  -17.0640   68.0210 N.3   259  GLU259     -0.1245
    125  CA        27.4790  -17.4150   67.2430 C.3   259  GLU259      0.1567
    126  C         27.1330  -16.1330   66.4960 C.2   259  GLU259      0.2260
    127  O         27.1460  -15.0460   67.0710 O.2   259  GLU259     -0.2867
    128  CB        26.3230  -17.8410   68.1450 C.3   259  GLU259      0.0388
    129  CG        25.0340  -18.1120   67.3840 C.3   259  GLU259      0.1160
    130  CD        23.8960  -18.5200   68.2860 C.2   259  GLU259      0.3649
    131  OE1       22.9050  -19.0800   67.7810 O.co2 259  GLU259     -0.2457
    132  OE2       23.9810  -18.3130   69.5090 O.co2 259  GLU259     -0.2457
    133  N         17.9920  -28.4280   70.7040 N.3   279  PRO279     -0.2116
    134  CA        18.3370  -27.0010   70.6180 C.3   279  PRO279      0.1372
    135  C         18.1810  -26.4400   69.2010 C.2   279  PRO279      0.2244
    136  O         18.2860  -25.2270   69.0040 O.2   279  PRO279     -0.2868
    137  CB        19.8010  -26.9660   71.0680 C.3   279  PRO279      0.0268
    138  CG        20.3350  -28.2640   70.5350 C.3   279  PRO279      0.0207
    139  CD        19.2090  -29.2580   70.8470 C.3   279  PRO279      0.0892
@<TRIPOS>BOND
     1   115   114    2
     2   112   113    1
     3   114   113    1
     4   113   116    1
     5    86    87    1
     6   116   117    1
     7   126   127    2
     8   126   125    1
     9   118   117   ar
    10   118   120   ar
    11    89    88    2
    12   117   119   ar
    13    87    88    1
    14    87    90    1
    15   125   124    1
    16   125   128    1
    17   120   122   ar
    18   129   128    1
    19   129   130    1
    20   131   130   ar
    21    93    91   ar
    22    93    95   ar
    23   107   106    2
    24    90    91    1
    25    91    92   ar
    26    95    94   ar
    27   130   132   ar
    28   119   121   ar
    29   106   105    1
    30   122   121   ar
    31   122   123    1
    32    94    92   ar
    33   136   135    2
    34   110   109   ar
    35   135   134    1
    36   109   111   ar
    37   109   108    1
    38   105   104    1
    39   105   108    1
    40    96    97    1
    41   104    98   am
    42   138   139    1
    43   138   137    1
    44   134   133    1
    45   134   137    1
    46   133   139    1
    47    98    99    2
    48    98    97    1
    49    97   100    1
    50   102   101    2
    51    83    85   ar
    52    83    81   ar
    53     9    10   ar
    54     9     7   ar
    55    80    81    1
    56    80    77    1
    57    85    84   ar
    58    81    82   ar
    59    10     8   ar
    60    74    75   ar
    61    74    72   ar
    62    75    73   ar
    63    84    82   ar
    64     7     6   ar
    65   100   101    1
    66   101   103   am
    67    77    78    1
    68    77    76    1
    69     8     6   ar
    70    53    54   ar
    71    53    51   ar
    72    72    71   ar
    73     1     2    1
    74    25    23    1
    75    78    79    2
    76     6     5    1
    77    69    68    2
    78    73    71   ar
    79     4     3    2
    80    33    32    1
    81    54    52   ar
    82    51    50   ar
    83    71    70    1
    84    76    68   am
    85    68    67    1
    86    24    22    1
    87    32    31    1
    88     5     2    1
    89     2     3    1
    90    23    22    1
    91    48    47    2
    92    45    46    1
    93    52    50   ar
    94    50    49    1
    95    43    44   ar
    96    43    41   ar
    97    22    19    1
    98    70    67    1
    99    44    42   ar
   100    67    66    1
   101    17    15    1
   102    41    39   ar
   103    47    46    1
   104    46    49    1
   105    27    30    1
   106    27    28    1
   107    27    26    1
   108    31    30    1
   109    42    40   ar
   110    28    29    2
   111    15    12    1
   112    15    16    1
   113    19    20    1
   114    19    18    1
   115    39    40   ar
   116    39    38    1
   117    11    12    1
   118    63    65   ar
   119    63    61   ar
   120    65    64   ar
   121    20    21    2
   122    38    35    1
   123    12    13    1
   124    61    60   ar
   125    64    62   ar
   126    14    13    2
   127    60    62   ar
   128    60    59    1
   129    35    36    1
   130    35    34    1
   131    59    56    1
   132    36    37    2
   133    56    57    1
   134    56    55    1
   135    57    58    2
