@<TRIPOS>MOLECULE
tmp/1knmA01.pdb
 80 75 0 0 0
SMALL
GASTEIGER

@<TRIPOS>ATOM
      1  N         13.1460    2.4230   -7.5490 N.3    67  GLY67      -0.1225
      2  CA        13.1170    0.9820   -7.4060 C.3    67  GLY67       0.1811
      3  C         13.2360    0.4590   -5.9870 C.2    67  GLY67       0.2280
      4  O         13.1340   -0.7480   -5.7790 O.2    67  GLY67      -0.2866
      5  N          4.5330    3.7890   -6.4550 N.3   101  ASP101     -0.1225
      6  CA         4.5830    3.4510   -7.8710 C.3   101  ASP101      0.1805
      7  C          4.3350    1.9550   -8.0720 C.2   101  ASP101      0.2598
      8  O          5.0120    1.1230   -7.4740 O.2   101  ASP101     -0.2718
      9  CB         5.9610    3.8650   -8.4080 C.3   101  ASP101      0.1424
     10  CG         6.1500    3.5680   -9.8860 C.2   101  ASP101      0.3668
     11  OD1        6.2990    2.3790  -10.2580 O.co2 101  ASP101     -0.2456
     12  OD2        6.2170    4.4770  -10.7430 O.co2 101  ASP101     -0.2456
     13  N          3.3550    1.6160   -8.9070 N.am  102  ALA102     -0.1966
     14  CA         3.1070    0.2230   -9.2650 C.3   102  ALA102      0.1728
     15  C          4.1130   -0.1740  -10.3430 C.2   102  ALA102      0.2616
     16  O          4.0950    0.3620  -11.4520 O.2   102  ALA102     -0.2715
     17  CB         1.6780    0.0260   -9.7420 C.3   102  ALA102      0.0334
     18  N          4.9910   -1.1070   -9.9900 N.am  103  VAL103     -0.1963
     19  CA         6.1690   -1.4620  -10.7850 C.3   103  VAL103      0.1727
     20  C          5.8330   -1.8350  -12.2280 C.2   103  VAL103      0.2617
     21  O          4.9460   -2.6450  -12.4770 O.2   103  VAL103     -0.2715
     22  CB         6.9330   -2.6550  -10.1410 C.3   103  VAL103      0.0290
     23  CG1        8.0480   -3.1600  -11.0520 C.3   103  VAL103      0.0023
     24  CG2        7.5090   -2.2710   -8.7840 C.3   103  VAL103      0.0023
     25  N          6.5660   -1.2520  -13.1710 N.am  104  GLY104     -0.1940
     26  CA         6.4130   -1.5740  -14.5800 C.3   104  GLY104      0.2014
     27  C          5.1190   -1.0960  -15.2120 C.2   104  GLY104      0.2638
     28  O          4.7560   -1.5620  -16.2900 O.2   104  GLY104     -0.2714
     29  N          4.4360   -0.1610  -14.5520 N.am  105  ASN105     -0.1972
     30  CA         3.0840    0.2570  -14.9290 C.3   105  ASN105      0.1688
     31  C          2.0850   -0.9080  -14.8920 C.2   105  ASN105      0.2292
     32  O          1.0960   -0.9210  -15.6260 O.2   105  ASN105     -0.2864
     33  CB         3.0820    0.9380  -16.3060 C.3   105  ASN105      0.1181
     34  CG         1.8220    1.7540  -16.5560 C.2   105  ASN105      0.2629
     35  OD1        1.2580    2.3490  -15.6380 O.2   105  ASN105     -0.2716
     36  ND2        1.3770    1.7840  -17.8080 N.am  105  ASN105     -0.0877
     37  N          6.7800    0.0870   -5.3290 N.3   114  GLN114     -0.1245
     38  CA         8.1160    0.6360   -5.1340 C.3   114  GLN114      0.1566
     39  C          8.0460    2.1560   -5.0120 C.2   114  GLN114      0.2260
     40  O          6.9920    2.7620   -5.2110 O.2   114  GLN114     -0.2867
     41  CB         8.9920    0.2870   -6.3410 C.3   114  GLN114      0.0367
     42  CG         8.5350    0.9880   -7.6320 C.3   114  GLN114      0.0905
     43  CD         9.3730    0.6630   -8.8530 C.2   114  GLN114      0.2608
     44  OE1       10.3840   -0.0380   -8.7630 O.2   114  GLN114     -0.2717
     45  NE2        8.9490    1.1710  -10.0040 N.am  114  GLN114     -0.0878
     46  N          9.4040    5.5760   -6.8620 N.3   116  TYR116     -0.1241
     47  CA         9.8750    5.9800   -8.1800 C.3   116  TYR116      0.1605
     48  C          9.7100    7.4750   -8.3840 C.2   116  TYR116      0.2264
     49  O          8.8070    8.0940   -7.8310 O.2   116  TYR116     -0.2867
     50  CB         9.1290    5.2240   -9.2810 C.3   116  TYR116      0.0534
     51  CG         9.9230    5.1010  -10.5640 C.ar  116  TYR116     -0.0201
     52  CD1       11.0080    4.2320  -10.6460 C.ar  116  TYR116     -0.0009
     53  CD2        9.5960    5.8510  -11.6920 C.ar  116  TYR116     -0.0009
     54  CE1       11.7470    4.1120  -11.8130 C.ar  116  TYR116      0.0417
     55  CE2       10.3300    5.7350  -12.8690 C.ar  116  TYR116      0.0417
     56  CZ        11.4040    4.8610  -12.9200 C.ar  116  TYR116      0.1957
     57  OH        12.1420    4.7300  -14.0720 O.3   116  TYR116     -0.2866
     58  N          6.0260   11.0740  -11.8080 N.3   119  SER119     -0.1217
     59  CA         5.6350   11.3720  -13.1840 C.3   119  SER119      0.1889
     60  C          4.1460   11.6790  -13.3100 C.2   119  SER119      0.2288
     61  O          3.6940   12.1310  -14.3610 O.2   119  SER119     -0.2866
     62  CB         5.9330   10.1640  -14.0680 C.3   119  SER119      0.2089
     63  OG         5.0970    9.0720  -13.7170 O.3   119  SER119     -0.2183
     64  N         -0.2130    4.7900  -12.6830 N.3   123  ASN123     -0.1225
     65  CA         0.3600    3.8790  -11.6840 C.3   123  ASN123      0.1785
     66  C          0.9850    4.6000  -10.4760 C.2   123  ASN123      0.2597
     67  O          1.5780    3.9600   -9.6070 O.2   123  ASN123     -0.2718
     68  CB         1.3960    2.9510  -12.3340 C.3   123  ASN123      0.1169
     69  CG         2.6600    3.6810  -12.7550 C.2   123  ASN123      0.2627
     70  OD1        2.6110    4.8180  -13.2150 O.2   123  ASN123     -0.2716
     71  ND2        3.8000    3.0220  -12.6000 N.am  123  ASN123     -0.0877
     72  N          0.8560    5.9260  -10.4390 N.am  124  GLN124     -0.1979
     73  CA         1.3250    6.7550   -9.3300 C.3   124  GLN124      0.1601
     74  C          0.2190    7.6380   -8.7440 C.2   124  GLN124      0.2287
     75  O          0.4930    8.4910   -7.8990 O.2   124  GLN124     -0.2864
     76  CB         2.4720    7.6540   -9.7920 C.3   124  GLN124      0.0394
     77  CG         3.7490    6.9240  -10.1310 C.3   124  GLN124      0.0908
     78  CD         4.9010    7.8770  -10.3550 C.2   124  GLN124      0.2608
     79  OE1        4.7250    9.0920  -10.2840 O.2   124  GLN124     -0.2717
     80  NE2        6.0810    7.3350  -10.6210 N.am  124  GLN124     -0.0878
@<TRIPOS>BOND
     1    36    34   am
     2    34    33    1
     3    34    35    2
     4    33    30    1
     5    28    27    2
     6    32    31    2
     7    27    26    1
     8    27    29   am
     9    30    31    1
    10    30    29    1
    11    26    25    1
    12    61    60    2
    13    57    56    1
    14    62    63    1
    15    62    59    1
    16    60    59    1
    17    70    69    2
    18    59    58    1
    19    25    20   am
    20    56    55   ar
    21    56    54   ar
    22    55    53   ar
    23    69    71   am
    24    69    68    1
    25    64    65    1
    26    21    20    2
    27    68    65    1
    28    20    19    1
    29    54    52   ar
    30    53    51   ar
    31    65    66    1
    32    16    15    2
    33    23    22    1
    34    19    22    1
    35    19    18    1
    36    12    10   ar
    37    52    51   ar
    38    80    78   am
    39    51    50    1
    40    66    72   am
    41    66    67    2
    42    72    73    1
    43    78    79    2
    44    78    77    1
    45    15    18   am
    46    15    14    1
    47    11    10   ar
    48    22    24    1
    49    77    76    1
    50    45    43   am
    51    10     9    1
    52    76    73    1
    53    17    14    1
    54    73    74    1
    55    50    47    1
    56    14    13    1
    57    13     7   am
    58    43    44    2
    59    43    42    1
    60    74    75    2
    61     9     6    1
    62    48    47    1
    63    48    49    2
    64    47    46    1
    65     7     6    1
    66     7     8    2
    67     6     5    1
    68    42    41    1
    69     1     2    1
    70     2     3    1
    71    41    38    1
    72     3     4    2
    73    37    38    1
    74    40    39    2
    75    38    39    1
