@<TRIPOS>MOLECULE
tmp/1knoD00.pdb
 109 111 0 0 0
SMALL
GASTEIGER

@<TRIPOS>ATOM
      1  N        -26.7240   55.8780   31.0870 N.3    35  HIS35      -0.1241
      2  CA       -26.6920   56.5410   32.3680 C.3    35  HIS35       0.1621
      3  C        -27.3730   55.7010   33.4200 C.2    35  HIS35       0.2264
      4  O        -28.1660   54.8060   33.1000 O.2    35  HIS35      -0.2867
      5  CB       -27.4970   57.7940   32.2600 C.3    35  HIS35       0.0745
      6  CG       -26.8770   58.8110   31.3850 C.ar   35  HIS35       0.0817
      7  ND1      -25.6920   59.4130   31.7250 N.ar   35  HIS35      -0.2268
      8  CD2      -27.2890   59.3930   30.2360 C.ar   35  HIS35       0.1154
      9  CE1      -25.4030   60.3350   30.8280 C.ar   35  HIS35       0.1986
     10  NE2      -26.3500   60.3460   29.9130 N.ar   35  HIS35      -0.2212
     11  N        -29.6490   56.4710   36.8980 N.3    37  VAL37      -0.1245
     12  CA       -30.2530   57.5320   37.6390 C.3    37  VAL37       0.1561
     13  C        -31.0360   56.8460   38.7280 C.2    37  VAL37       0.2260
     14  O        -31.7230   55.8390   38.4670 O.2    37  VAL37      -0.2867
     15  CB       -31.1600   58.3440   36.7130 C.3    37  VAL37       0.0252
     16  CG1      -31.9820   59.3360   37.4940 C.3    37  VAL37       0.0019
     17  CG2      -30.3330   59.0580   35.7100 C.3    37  VAL37       0.0019
     18  N        -28.6960   61.8400   39.1650 N.3    47  TRP47      -0.1241
     19  CA       -27.7430   61.2640   38.2200 C.3    47  TRP47       0.1605
     20  C        -26.6510   60.5420   39.0770 C.2    47  TRP47       0.2264
     21  O        -26.2770   61.0550   40.1330 O.2    47  TRP47      -0.2867
     22  CB       -27.1960   62.3660   37.2600 C.3    47  TRP47       0.0550
     23  CG       -26.2100   61.8200   36.2620 C.ar   47  TRP47       0.0003
     24  CD1      -26.4530   60.8860   35.2980 C.ar   47  TRP47       0.0946
     25  CD2      -24.7930   61.9780   36.3020 C.ar   47  TRP47       0.0152
     26  NE1      -25.2660   60.4310   34.7680 N.ar   47  TRP47      -0.2442
     27  CE2      -24.2340   61.0830   35.3710 C.ar   47  TRP47       0.0810
     28  CE3      -23.9280   62.8040   37.0400 C.ar   47  TRP47       0.0012
     29  CZ2      -22.8690   60.9650   35.1820 C.ar   47  TRP47       0.0191
     30  CZ3      -22.5710   62.6850   36.8520 C.ar   47  TRP47       0.0001
     31  CH2      -22.0430   61.7760   35.9240 C.ar   47  TRP47       0.0015
     32  N        -22.3040   57.6190   34.0130 N.3    50  TYR50      -0.1241
     33  CA       -22.4600   57.7290   32.5950 C.3    50  TYR50       0.1605
     34  C        -21.2630   57.1000   31.9420 C.2    50  TYR50       0.2264
     35  O        -20.1100   57.5010   32.2110 O.2    50  TYR50      -0.2867
     36  CB       -22.4840   59.1810   32.1500 C.3    50  TYR50       0.0534
     37  CG       -22.1860   59.3210   30.6580 C.ar   50  TYR50      -0.0201
     38  CD1      -23.1680   59.0820   29.7170 C.ar   50  TYR50      -0.0009
     39  CD2      -20.9150   59.6470   30.2020 C.ar   50  TYR50      -0.0009
     40  CE1      -22.9200   59.1630   28.3930 C.ar   50  TYR50       0.0417
     41  CE2      -20.6440   59.7200   28.8660 C.ar   50  TYR50       0.0417
     42  CZ       -21.6590   59.4790   27.9590 C.ar   50  TYR50       0.1957
     43  OH       -21.4300   59.5510   26.5960 O.3    50  TYR50      -0.2866
     44  N        -30.9420   54.8110   31.8340 N.3    97  ALA97      -0.1231
     45  CA       -31.5250   55.6400   30.7630 C.3    97  ALA97       0.1694
     46  C        -30.5570   55.8930   29.6400 C.2    97  ALA97       0.2592
     47  O        -29.3760   56.1780   29.8920 O.2    97  ALA97      -0.2718
     48  CB       -31.9760   56.9570   31.3190 C.3    97  ALA97       0.0304
     49  N        -31.0290   55.7730   28.4070 N.am   98  ARG98      -0.1966
     50  CA       -30.1390   56.0280   27.2580 C.3    98  ARG98       0.1729
     51  C        -29.8480   57.5380   27.1850 C.2    98  ARG98       0.2617
     52  O        -30.7290   58.3830   27.4390 O.2    98  ARG98      -0.2715
     53  CB       -30.7630   55.5550   25.9320 C.3    98  ARG98       0.0348
     54  CG       -29.8640   55.6610   24.7210 C.3    98  ARG98       0.0492
     55  CD       -30.6340   55.4320   23.4120 C.3    98  ARG98       0.2205
     56  NE       -31.4340   56.6090   23.0280 N.pl3  98  ARG98      -0.0865
     57  CZ       -32.1610   56.7080   21.9110 C.cat  98  ARG98       0.5346
     58  NH1      -32.2130   55.7100   21.0240 N.pl3  98  ARG98       0.1354
     59  NH2      -32.8650   57.8040   21.7060 N.pl3  98  ARG98       0.1354
     60  N        -28.6020   57.8680   26.8680 N.am   99  GLY99      -0.1940
     61  CA       -28.2250   59.2590   26.7820 C.3    99  GLY99       0.2014
     62  C        -27.9330   59.7580   25.3780 C.2    99  GLY99       0.2639
     63  O        -28.5440   59.3270   24.3840 O.2    99  GLY99      -0.2714
     64  N        -26.9320   60.6380   25.3220 N.am  100  ASP100     -0.1957
     65  CA       -26.4660   61.3170   24.1120 C.3   100  ASP100      0.1840
     66  C        -27.5550   62.1690   23.5140 C.2   100  ASP100      0.2622
     67  O        -27.7980   62.0840   22.3430 O.2   100  ASP100     -0.2715
     68  CB       -25.8630   60.3370   23.1000 C.3   100  ASP100      0.1450
     69  CG       -24.5150   59.7620   23.5720 C.2   100  ASP100      0.3671
     70  OD1      -23.8270   60.4010   24.4040 O.co2 100  ASP100     -0.2456
     71  OD2      -24.1360   58.6560   23.1220 O.co2 100  ASP100     -0.2456
     72  N        -28.1360   63.0460   24.3350 N.am  101  TYR101     -0.1960
     73  CA       -29.2340   63.9350   23.9520 C.3   101  TYR101      0.1771
     74  C        -28.7960   64.9200   22.8810 C.2   101  TYR101      0.2619
     75  O        -29.6120   65.6590   22.3340 O.2   101  TYR101     -0.2715
     76  CB       -29.8200   64.6820   25.1930 C.3   101  TYR101      0.0574
     77  CG       -30.7210   63.8390   26.1150 C.ar  101  TYR101     -0.0198
     78  CD1      -30.5350   62.4610   26.2210 C.ar  101  TYR101     -0.0009
     79  CD2      -31.7690   64.4110   26.8590 C.ar  101  TYR101     -0.0009
     80  CE1      -31.3480   61.6710   27.0360 C.ar  101  TYR101      0.0417
     81  CE2      -32.6090   63.6140   27.6790 C.ar  101  TYR101      0.0417
     82  CZ       -32.3650   62.2480   27.7510 C.ar  101  TYR101      0.1957
     83  OH       -33.0620   61.3990   28.5390 O.3   101  TYR101     -0.2866
     84  N        -27.4900   64.9640   22.6290 N.am  102  TYR102     -0.1974
     85  CA       -26.9030   65.8200   21.5840 C.3   102  TYR102      0.1639
     86  C        -27.1760   65.1370   20.2470 C.2   102  TYR102      0.2290
     87  O        -26.4200   64.2600   19.7990 O.2   102  TYR102     -0.2864
     88  CB       -25.3790   65.9040   21.7370 C.3   102  TYR102      0.0560
     89  CG       -24.8380   66.6890   22.9240 C.ar  102  TYR102     -0.0198
     90  CD1      -25.2210   66.3990   24.2340 C.ar  102  TYR102     -0.0009
     91  CD2      -23.8940   67.6990   22.7310 C.ar  102  TYR102     -0.0009
     92  CE1      -24.6770   67.0960   25.3200 C.ar  102  TYR102      0.0417
     93  CE2      -23.3440   68.3950   23.8170 C.ar  102  TYR102      0.0417
     94  CZ       -23.7470   68.0850   25.1090 C.ar  102  TYR102      0.1957
     95  OH       -23.2460   68.7960   26.1770 O.3   102  TYR102     -0.2866
     96  N        -36.1190   55.9940   29.0100 N.3   109  TRP109     -0.1241
     97  CA       -35.8570   55.6360   30.4230 C.3   109  TRP109      0.1605
     98  C        -36.3090   54.2150   30.7760 C.2   109  TRP109      0.2264
     99  O        -37.1720   53.6270   30.1080 O.2   109  TRP109     -0.2867
    100  CB       -36.5360   56.6180   31.3360 C.3   109  TRP109      0.0550
    101  CG       -35.8640   57.9530   31.3310 C.ar  109  TRP109      0.0003
    102  CD1      -36.0790   58.9780   30.4590 C.ar  109  TRP109      0.0946
    103  CD2      -34.9310   58.4350   32.2910 C.ar  109  TRP109      0.0152
    104  NE1      -35.3480   60.0840   30.8350 N.ar  109  TRP109     -0.2442
    105  CE2      -34.6360   59.7720   31.9580 C.ar  109  TRP109      0.0810
    106  CE3      -34.3200   57.8690   33.4070 C.ar  109  TRP109      0.0012
    107  CZ2      -33.7580   60.5480   32.7010 C.ar  109  TRP109      0.0191
    108  CZ3      -33.4410   58.6400   34.1480 C.ar  109  TRP109      0.0001
    109  CH2      -33.1710   59.9640   33.7960 C.ar  109  TRP109      0.0015
@<TRIPOS>BOND
     1    87    86    2
     2    86    85    1
     3    58    57    1
     4    85    88    1
     5    85    84    1
     6    59    57    1
     7    88    89    1
     8    57    56    2
     9    75    74    2
    10    67    66    2
    11    84    74   am
    12    91    89   ar
    13    91    93   ar
    14    74    73    1
    15    89    90   ar
    16    56    55    1
    17    68    69    1
    18    68    65    1
    19    71    69   ar
    20    55    54    1
    21    66    65    1
    22    66    72   am
    23    69    70   ar
    24    93    94   ar
    25    73    72    1
    26    73    76    1
    27    65    64    1
    28    90    92   ar
    29    63    62    2
    30    54    53    1
    31    94    92   ar
    32    94    95    1
    33    76    77    1
    34    64    62   am
    35    62    61    1
    36    53    50    1
    37    77    78   ar
    38    77    79   ar
    39    78    80   ar
    40    43    42    1
    41    61    60    1
    42    79    81   ar
    43    60    51   am
    44    80    82   ar
    45    51    50    1
    46    51    52    2
    47    50    49    1
    48    81    82   ar
    49    82    83    1
    50    42    40   ar
    51    42    41   ar
    52    40    38   ar
    53    49    46   am
    54    41    39   ar
    55    96    97    1
    56    46    47    2
    57    46    45    1
    58    38    37   ar
    59    10     8   ar
    60    10     9   ar
    61    99    98    2
    62    39    37   ar
    63     8     6   ar
    64    97    98    1
    65    97   100    1
    66   102   104   ar
    67   102   101   ar
    68    37    36    1
    69    45    48    1
    70    45    44    1
    71     9     7   ar
    72   104   105   ar
    73     1     2    1
    74   101   100    1
    75   101   103   ar
    76     6     7   ar
    77     6     5    1
    78    34    35    2
    79    34    33    1
    80   105   103   ar
    81   105   107   ar
    82    36    33    1
    83     5     2    1
    84   103   106   ar
    85     2     3    1
    86    33    32    1
    87   107   109   ar
    88     4     3    2
    89   106   108   ar
    90   109   108   ar
    91    26    24   ar
    92    26    27   ar
    93    29    27   ar
    94    29    31   ar
    95    24    23   ar
    96    27    25   ar
    97    17    15    1
    98    31    30   ar
    99    23    25   ar
   100    23    22    1
   101    25    28   ar
   102    15    16    1
   103    15    12    1
   104    30    28   ar
   105    11    12    1
   106    22    19    1
   107    12    13    1
   108    19    20    1
   109    19    18    1
   110    14    13    2
   111    20    21    2
