@<TRIPOS>MOLECULE
tmp/1knpA01.pdb
 123 116 0 0 0
SMALL
GASTEIGER

@<TRIPOS>ATOM
      1  N         62.7150   41.1290  132.5560 N.3    45  ALA45      -0.1231
      2  CA        62.0130   41.7740  131.4660 C.3    45  ALA45       0.1694
      3  C         60.8430   40.8810  130.9820 C.2    45  ALA45       0.2592
      4  O         60.9970   39.6590  130.7870 O.2    45  ALA45      -0.2718
      5  CB        62.9590   42.1120  130.3650 C.3    45  ALA45       0.0304
      6  N         59.6730   41.4800  130.7960 N.am   46  GLN46      -0.1966
      7  CA        58.4960   40.7220  130.3400 C.3    46  GLN46       0.1733
      8  C         58.2650   40.6770  128.8140 C.2    46  GLN46       0.2617
      9  O         58.4560   39.6400  128.1450 O.2    46  GLN46      -0.2715
     10  CB        57.2740   41.3070  131.0340 C.3    46  GLN46       0.0408
     11  CG        57.5900   41.6370  132.4700 C.3    46  GLN46       0.0908
     12  CD        56.3990   42.1250  133.2510 C.2    46  GLN46       0.2608
     13  OE1       55.3710   42.4970  132.6530 O.2    46  GLN46      -0.2717
     14  NE2       56.5290   42.1600  134.5960 N.am   46  GLN46      -0.0878
     15  N         57.8910   41.8460  128.2970 N.am   47  GLY47      -0.1940
     16  CA        57.4170   42.0380  126.9450 C.3    47  GLY47       0.2014
     17  C         58.2850   41.6980  125.7800 C.2    47  GLY47       0.2639
     18  O         57.7660   41.5200  124.7150 O.2    47  GLY47      -0.2714
     19  N         59.5910   41.5880  125.9470 N.am   48  GLY48      -0.1954
     20  CA        60.4220   41.1970  124.8160 C.3    48  GLY48       0.1869
     21  C         61.2820   42.2400  124.0930 C.2    48  GLY48       0.2309
     22  O         61.3840   43.4100  124.4750 O.2    48  GLY48      -0.2863
     23  N         54.1500   47.6070  121.5910 N.3   117  GLU117     -0.1245
     24  CA        54.0260   48.4440  122.8050 C.3   117  GLU117      0.1567
     25  C         53.9470   49.8510  122.2600 C.2   117  GLU117      0.2260
     26  O         53.8330   50.0290  121.0840 O.2   117  GLU117     -0.2867
     27  CB        55.1310   48.2300  123.8370 C.3   117  GLU117      0.0388
     28  CG        55.2310   46.7740  124.2100 C.3   117  GLU117      0.1160
     29  CD        56.0570   46.4640  125.4670 C.2   117  GLU117      0.3649
     30  OE1       56.1860   47.3680  126.3300 O.co2 117  GLU117     -0.2457
     31  OE2       56.5450   45.3010  125.6130 O.co2 117  GLU117     -0.2457
     32  N         57.5260   53.9090  134.2580 N.3   240  HIS240     -0.1241
     33  CA        56.6740   53.0180  133.5110 C.3   240  HIS240      0.1621
     34  C         55.2750   53.2630  133.9530 C.2   240  HIS240      0.2264
     35  O         54.9850   53.3690  135.1480 O.2   240  HIS240     -0.2867
     36  CB        57.0460   51.5730  133.8170 C.3   240  HIS240      0.0745
     37  CG        56.5500   50.6220  132.8010 C.ar  240  HIS240      0.0817
     38  ND1       55.2050   50.3920  132.6150 N.ar  240  HIS240     -0.2268
     39  CD2       57.2070   49.9130  131.8500 C.ar  240  HIS240      0.1154
     40  CE1       55.0660   49.5280  131.6230 C.ar  240  HIS240      0.1986
     41  NE2       56.2600   49.2370  131.1300 N.ar  240  HIS240     -0.2212
     42  N         55.6410   44.7320  137.5670 N.3   253  LEU253     -0.1245
     43  CA        55.2490   45.4650  136.4110 C.3   253  LEU253      0.1561
     44  C         54.3090   44.6720  135.5620 C.2   253  LEU253      0.2260
     45  O         54.5510   43.4770  135.2780 O.2   253  LEU253     -0.2867
     46  CB        56.4860   45.8790  135.6250 C.3   253  LEU253      0.0270
     47  CG        56.2740   46.0170  134.1480 C.3   253  LEU253      0.0019
     48  CD1       56.2240   47.4550  133.7960 C.3   253  LEU253      0.0001
     49  CD2       57.3800   45.3150  133.4440 C.3   253  LEU253      0.0001
     50  N         53.2630   44.3420  132.0300 N.3   255  THR255     -0.1203
     51  CA        53.8250   44.6920  130.7270 C.3   255  THR255      0.1994
     52  C         53.0340   45.6950  129.8190 C.2   255  THR255      0.2617
     53  O         51.8170   45.8370  129.9080 O.2   255  THR255     -0.2717
     54  CB        54.0800   43.4250  130.0000 C.3   255  THR255      0.1784
     55  OG1       54.9390   43.6730  128.8850 O.3   255  THR255     -0.2211
     56  CG2       52.7840   42.9580  129.4330 C.3   255  THR255      0.0376
     57  N         53.7340   46.4330  128.9670 N.am  256  GLU256     -0.1979
     58  CA        53.0300   47.3900  128.1120 C.3   256  GLU256      0.1602
     59  C         52.4090   46.5300  127.0450 C.2   256  GLU256      0.2287
     60  O         51.4190   46.8920  126.4270 O.2   256  GLU256     -0.2864
     61  CB        53.9580   48.4660  127.5200 C.3   256  GLU256      0.0415
     62  CG        53.2450   49.7790  127.1950 C.3   256  GLU256      0.1163
     63  CD        54.1490   50.9750  126.8480 C.2   256  GLU256      0.3649
     64  OE1       54.0030   52.0670  127.4650 O.co2 256  GLU256     -0.2457
     65  OE2       54.9600   50.8790  125.9190 O.co2 256  GLU256     -0.2457
     66  N         55.5960   56.5930  126.8350 N.3   286  ARG286     -0.1245
     67  CA        55.5270   56.6320  128.2590 C.3   286  ARG286      0.1563
     68  C         55.6430   57.9470  128.8880 C.2   286  ARG286      0.2260
     69  O         55.0240   58.1750  129.9180 O.2   286  ARG286     -0.2867
     70  CB        56.5430   55.6750  128.8600 C.3   286  ARG286      0.0307
     71  CG        56.4410   54.2880  128.2750 C.3   286  ARG286      0.0489
     72  CD        57.3600   53.3380  128.8290 C.3   286  ARG286      0.2205
     73  NE        57.0690   51.9940  128.3760 N.pl3 286  ARG286     -0.0865
     74  CZ        57.9780   51.0350  128.3650 C.cat 286  ARG286      0.5346
     75  NH1       59.2200   51.2890  128.7280 N.pl3 286  ARG286      0.1354
     76  NH2       57.6730   49.8300  127.9560 N.pl3 286  ARG286      0.1354
     77  N         61.4660   53.1550  136.2600 N.3   347  HIS347     -0.1226
     78  CA        61.7280   51.9540  135.4550 C.3   347  HIS347      0.1752
     79  C         63.0520   51.8600  134.6610 C.2   347  HIS347      0.2596
     80  O         63.6820   50.7990  134.6470 O.2   347  HIS347     -0.2718
     81  CB        60.5670   51.8600  134.4460 C.3   347  HIS347      0.0759
     82  CG        60.6030   50.6390  133.5890 C.ar  347  HIS347      0.0818
     83  ND1       60.4680   49.3680  134.1010 N.ar  347  HIS347     -0.2268
     84  CD2       60.8170   50.4880  132.2670 C.ar  347  HIS347      0.1154
     85  CE1       60.5290   48.4910  133.1210 C.ar  347  HIS347      0.1986
     86  NE2       60.7380   49.1470  131.9930 N.ar  347  HIS347     -0.2212
     87  N         63.4520   52.9210  133.9740 N.am  348  TYR348     -0.1976
     88  CA        64.6540   52.8490  133.1570 C.3   348  TYR348      0.1639
     89  C         65.4460   54.1550  133.0900 C.2   348  TYR348      0.2290
     90  O         64.8620   55.2690  133.0500 O.2   348  TYR348     -0.2864
     91  CB        64.2500   52.5250  131.7380 C.3   348  TYR348      0.0560
     92  CG        65.3620   52.3440  130.7240 C.ar  348  TYR348     -0.0198
     93  CD1       66.1190   51.1500  130.6820 C.ar  348  TYR348     -0.0009
     94  CD2       65.5940   53.3210  129.7250 C.ar  348  TYR348     -0.0009
     95  CE1       67.1050   50.9390  129.7440 C.ar  348  TYR348      0.0417
     96  CE2       66.5820   53.0880  128.7460 C.ar  348  TYR348      0.0417
     97  CZ        67.3400   51.8960  128.7820 C.ar  348  TYR348      0.1957
     98  OH        68.3180   51.6670  127.8280 O.3   348  TYR348     -0.2866
     99  N         62.7300   56.5520  126.1210 N.3   382  LEU382     -0.1245
    100  CA        62.8870   55.2710  125.4550 C.3   382  LEU382      0.1561
    101  C         61.5920   54.8360  124.8490 C.2   382  LEU382      0.2260
    102  O         60.4800   55.2100  125.3210 O.2   382  LEU382     -0.2867
    103  CB        63.2800   54.2290  126.4470 C.3   382  LEU382      0.0270
    104  CG        63.0350   52.7320  126.2950 C.3   382  LEU382      0.0019
    105  CD1       64.2780   52.0500  125.7440 C.3   382  LEU382      0.0001
    106  CD2       62.7720   52.1000  127.6620 C.3   382  LEU382      0.0001
    107  N         59.6370   51.4200  124.2290 N.3   384  ALA384     -0.1231
    108  CA        59.5790   50.0460  124.7590 C.3   384  ALA384      0.1694
    109  C         60.3010   49.0770  123.8670 C.2   384  ALA384      0.2592
    110  O         60.1500   49.1160  122.6760 O.2   384  ALA384     -0.2718
    111  CB        58.1340   49.5930  124.9460 C.3   384  ALA384      0.0304
    112  N         61.1100   48.2250  124.4670 N.am  385  SER385     -0.1952
    113  CA        61.7430   47.1530  123.7790 C.3   385  SER385      0.1924
    114  C         62.9000   47.6270  123.0000 C.2   385  SER385      0.2314
    115  O         63.5090   46.8300  122.2650 O.2   385  SER385     -0.2863
    116  CB        60.7730   46.4250  122.8690 C.3   385  SER385      0.2116
    117  OG        59.9180   45.6180  123.6540 O.3   385  SER385     -0.2180
    118  N         65.3390   48.7310  124.8330 N.3   387  SER387     -0.1217
    119  CA        66.3530   48.5800  125.8850 C.3   387  SER387      0.1889
    120  C         67.1790   47.3080  125.8180 C.2   387  SER387      0.2288
    121  O         68.4010   47.3600  125.7340 O.2   387  SER387     -0.2866
    122  CB        65.6810   48.6360  127.2510 C.3   387  SER387      0.2089
    123  OG        64.2570   48.4520  127.1140 O.3   387  SER387     -0.2183
@<TRIPOS>BOND
     1    26    25    2
     2    23    24    1
     3    25    24    1
     4   115   114    2
     5   110   109    2
     6    24    27    1
     7   116   117    1
     8   116   113    1
     9   114   113    1
    10   113   112    1
    11    27    28    1
    12   109   112   am
    13   109   108    1
    14    21    22    2
    15    21    20    1
    16    28    29    1
    17   107   108    1
    18    18    17    2
    19   108   111    1
    20    20    19    1
    21   118   119    1
    22   101   102    2
    23   101   100    1
    24   100    99    1
    25   100   103    1
    26    29    31   ar
    27    29    30   ar
    28   121   120    2
    29   105   104    1
    30    17    19   am
    31    17    16    1
    32   120   119    1
    33   119   122    1
    34    65    63   ar
    35   104   103    1
    36   104   106    1
    37    60    59    2
    38    66    67    1
    39    63    62    1
    40    63    64   ar
    41    16    15    1
    42    59    58    1
    43   123   122    1
    44    62    61    1
    45    61    58    1
    46    98    97    1
    47    76    74    1
    48    58    57    1
    49     9     8    2
    50    67    70    1
    51    67    68    1
    52    71    72    1
    53    71    70    1
    54    15     8   am
    55    74    73    2
    56    74    75    1
    57    73    72    1
    58    96    97   ar
    59    96    94   ar
    60    97    95   ar
    61     8     7    1
    62    55    54    1
    63    68    69    2
    64    57    52   am
    65    56    54    1
    66    94    92   ar
    67    95    93   ar
    68    52    53    2
    69    52    51    1
    70    54    51    1
    71     7     6    1
    72     7    10    1
    73     5     2    1
    74    93    92   ar
    75    92    91    1
    76    51    50    1
    77     4     3    2
    78     6     3   am
    79     3     2    1
    80    10    11    1
    81    41    40   ar
    82    41    39   ar
    83     2     1    1
    84    40    38   ar
    85    91    88    1
    86    39    37   ar
    87    86    84   ar
    88    86    85   ar
    89    84    82   ar
    90    11    12    1
    91    38    37   ar
    92    13    12    2
    93    37    36    1
    94    90    89    2
    95    89    88    1
    96    85    83   ar
    97    88    87    1
    98    12    14   am
    99    49    47    1
   100    33    36    1
   101    33    34    1
   102    33    32    1
   103    82    83   ar
   104    82    81    1
   105    48    47    1
   106    34    35    2
   107    87    79   am
   108    47    46    1
   109    81    78    1
   110    80    79    2
   111    79    78    1
   112    45    44    2
   113    78    77    1
   114    44    43    1
   115    46    43    1
   116    43    42    1
