@<TRIPOS>MOLECULE
tmp/1knwA00.pdb
 147 141 0 0 0
SMALL
GASTEIGER

@<TRIPOS>ATOM
      1  N         13.9540   41.3590   54.7590 N.3    51  ALA51      -0.1245
      2  CA        13.9170   40.8980   56.1550 C.3    51  ALA51       0.1562
      3  C         13.7750   42.1250   57.0450 C.2    51  ALA51       0.2260
      4  O         14.7680   42.7700   57.3810 O.2    51  ALA51      -0.2867
      5  CB        15.2390   40.1810   56.4640 C.3    51  ALA51       0.0290
      6  N         13.3840   42.8520   60.0310 N.3    53  LYS53      -0.1245
      7  CA        14.0230   42.9790   61.3440 C.3    53  LYS53       0.1561
      8  C         15.2800   43.8190   61.2700 C.2    53  LYS53       0.2260
      9  O         15.7610   44.3390   62.3040 O.2    53  LYS53      -0.2867
     10  CB        14.2820   41.6450   62.0090 C.3    53  LYS53       0.0271
     11  CG        15.4530   40.8370   61.4220 C.3    53  LYS53       0.0035
     12  CD        16.0720   39.9500   62.4800 C.3    53  LYS53       0.0206
     13  CE        17.3700   39.3070   62.0840 C.3    53  LYS53       0.1093
     14  NZ        17.1470   38.2160   61.0670 N.3    53  LYS53      -0.1314
     15  N          9.3450   39.8680   54.7700 N.3    72  ASP72      -0.1239
     16  CA         9.3260   38.7610   55.7100 C.3    72  ASP72       0.1674
     17  C          9.1050   39.3170   57.1300 C.2    72  ASP72       0.2266
     18  O          9.9510   40.1020   57.5640 O.2    72  ASP72      -0.2867
     19  CB        10.6750   38.0130   55.6990 C.3    72  ASP72       0.1410
     20  CG        10.5280   36.6630   56.4060 C.2    72  ASP72       0.3668
     21  OD1        9.4580   36.0460   56.2170 O.co2  72  ASP72      -0.2456
     22  OD2       11.4410   36.2670   57.1510 O.co2  72  ASP72      -0.2456
     23  N          8.8240   38.4170   61.2920 N.3    74  VAL74      -0.1245
     24  CA         9.2570   37.3760   62.2140 C.3    74  VAL74       0.1561
     25  C          8.5820   37.4600   63.5630 C.2    74  VAL74       0.2260
     26  O          8.9050   36.7210   64.4990 O.2    74  VAL74      -0.2867
     27  CB        10.7850   37.3270   62.3600 C.3    74  VAL74       0.0252
     28  CG1       11.4130   37.1150   60.9660 C.3    74  VAL74       0.0019
     29  CG2       11.3440   38.5770   62.9990 C.3    74  VAL74       0.0019
     30  N          7.7240   34.2140   59.3600 N.3    99  THR99      -0.1218
     31  CA         8.8240   33.2690   59.5230 C.3    99  THR99       0.1862
     32  C          9.3430   33.2480   60.9550 C.2    99  THR99       0.2287
     33  O          9.7160   34.2950   61.4860 O.2    99  THR99      -0.2866
     34  CB         9.9970   33.6810   58.5900 C.3    99  THR99       0.1770
     35  OG1        9.5240   33.6510   57.2290 O.3    99  THR99      -0.2211
     36  CG2       11.1700   32.7440   58.7450 C.3    99  THR99       0.0375
     37  N         11.4880   25.9970   56.8530 N.3   141  ARG141     -0.1245
     38  CA        12.8830   26.4310   56.9870 C.3   141  ARG141      0.1563
     39  C         13.7140   25.2100   57.4230 C.2   141  ARG141      0.2260
     40  O         13.4350   24.6110   58.4570 O.2   141  ARG141     -0.2867
     41  CB        13.0690   27.5710   57.9650 C.3   141  ARG141      0.0307
     42  CG        14.5620   27.8920   58.2170 C.3   141  ARG141      0.0489
     43  CD        14.7260   29.0350   59.1930 C.3   141  ARG141      0.2205
     44  NE        16.1630   29.4220   59.3150 N.pl3 141  ARG141     -0.0865
     45  CZ        16.5500   30.4440   60.0680 C.cat 141  ARG141      0.5346
     46  NH1       15.6270   31.1470   60.7400 N.pl3 141  ARG141      0.1354
     47  NH2       17.8200   30.7850   60.1830 N.pl3 141  ARG141      0.1354
     48  N         17.6200   27.4030   64.9560 N.3   163  HIS163     -0.1241
     49  CA        16.8860   27.7130   63.7630 C.3   163  HIS163      0.1621
     50  C         16.5750   26.5540   62.8430 C.2   163  HIS163      0.2264
     51  O         17.4780   25.8510   62.3670 O.2   163  HIS163     -0.2867
     52  CB        17.7110   28.7520   62.9310 C.3   163  HIS163      0.0745
     53  CG        17.8250   30.0660   63.6450 C.ar  163  HIS163      0.0817
     54  ND1       16.7320   30.7580   64.1030 N.ar  163  HIS163     -0.2268
     55  CD2       18.9140   30.8300   63.9230 C.ar  163  HIS163      0.1154
     56  CE1       17.1390   31.8930   64.6600 C.ar  163  HIS163      0.1986
     57  NE2       18.4480   31.9600   64.5540 N.ar  163  HIS163     -0.2212
     58  N         12.9420   26.7310   52.4150 N.3   188  HIS188     -0.1241
     59  CA        13.7860   27.9180   52.6610 C.3   188  HIS188      0.1621
     60  C         14.9730   27.5520   53.5320 C.2   188  HIS188      0.2264
     61  O         14.8970   26.6280   54.3420 O.2   188  HIS188     -0.2867
     62  CB        12.8940   28.9610   53.3440 C.3   188  HIS188      0.0745
     63  CG        13.5520   29.9520   54.2300 C.ar  188  HIS188      0.0817
     64  ND1       13.5950   31.3100   53.9350 N.ar  188  HIS188     -0.2268
     65  CD2       14.0660   29.8390   55.4840 C.ar  188  HIS188      0.1154
     66  CE1       14.1750   31.9580   54.9310 C.ar  188  HIS188      0.1986
     67  NE2       14.4710   31.0820   55.8770 N.ar  188  HIS188     -0.2212
     68  N         18.0210   29.9030   55.7580 N.3   190  HIS190     -0.1241
     69  CA        18.6740   31.1670   56.1140 C.3   190  HIS190      0.1621
     70  C         19.9120   30.8590   56.9460 C.2   190  HIS190      0.2264
     71  O         19.8400   30.4340   58.1020 O.2   190  HIS190     -0.2867
     72  CB        17.7310   32.1240   56.8190 C.3   190  HIS190      0.0745
     73  CG        18.4130   33.3670   57.3170 C.ar  190  HIS190      0.0817
     74  ND1       19.0350   34.2580   56.4640 N.ar  190  HIS190     -0.2268
     75  CD2       18.7100   33.7700   58.5750 C.ar  190  HIS190      0.1154
     76  CE1       19.6470   35.1890   57.1860 C.ar  190  HIS190      0.1986
     77  NE2       19.4380   34.9270   58.4730 N.ar  190  HIS190     -0.2212
     78  N         18.8750   35.1330   53.7770 N.3   225  GLY225     -0.1210
     79  CA        19.6400   36.3860   53.7130 C.3   225  GLY225      0.1956
     80  C         21.0960   36.1480   54.0540 C.2   225  GLY225      0.2612
     81  O         21.6480   35.0740   53.7840 O.2   225  GLY225     -0.2717
     82  N         21.7510   37.1650   54.6150 N.am  226  GLY226     -0.1942
     83  CA        23.1440   37.0140   55.0140 C.3   226  GLY226      0.2014
     84  C         24.1210   37.5740   54.0050 C.2   226  GLY226      0.2638
     85  O         25.3190   37.2750   54.0940 O.2   226  GLY226     -0.2714
     86  N         23.6560   38.3620   53.0490 N.am  227  LEU227     -0.1977
     87  CA        24.5960   39.0970   52.1710 C.3   227  LEU227      0.1596
     88  C         25.3040   40.1310   53.0790 C.2   227  LEU227      0.2287
     89  O         24.6300   40.7340   53.9230 O.2   227  LEU227     -0.2864
     90  CB        23.8610   39.8350   51.0760 C.3   227  LEU227      0.0297
     91  CG        23.3700   39.0610   49.8650 C.3   227  LEU227      0.0022
     92  CD1       22.3010   38.0430   50.2450 C.3   227  LEU227      0.0001
     93  CD2       22.8290   40.0250   48.8070 C.3   227  LEU227      0.0001
     94  N         16.2610   36.7970   50.4600 N.3   267  GLU267     -0.1231
     95  CA        15.6930   37.4880   51.6320 C.3   267  GLU267      0.1684
     96  C         16.6910   38.3230   52.3940 C.2   267  GLU267      0.2434
     97  O         16.9720   38.0530   53.5720 O.2   267  GLU267     -0.2733
     98  CB        15.1530   36.3500   52.5390 C.3   267  GLU267      0.0402
     99  CG        14.1480   36.7270   53.5890 C.3   267  GLU267      0.1161
    100  CD        13.5560   35.4940   54.2660 C.2   267  GLU267      0.3649
    101  OE1       12.4230   35.1090   53.9110 O.co2 267  GLU267     -0.2457
    102  OE2       14.2880   34.8540   55.0580 O.co2 267  GLU267     -0.2457
    103  N         17.2290   39.3730   51.7800 N.am  268  PRO268     -0.2718
    104  CA        18.2310   40.2120   52.3940 C.3   268  PRO268      0.1535
    105  C         17.6180   41.1270   53.4540 C.2   268  PRO268      0.2599
    106  O         16.4800   41.5670   53.3180 O.2   268  PRO268     -0.2715
    107  CB        18.7310   41.0880   51.2300 C.3   268  PRO268      0.0310
    108  CG        17.5290   41.2060   50.3400 C.3   268  PRO268      0.0237
    109  CD        16.8080   39.8920   50.4610 C.3   268  PRO268      0.0939
    110  N         18.4020   41.3960   54.4730 N.am  269  GLY269     -0.1941
    111  CA        18.0020   42.3710   55.5140 C.3   269  GLY269      0.2014
    112  C         19.0780   43.4870   55.4540 C.2   269  GLY269      0.2639
    113  O         18.9500   44.4420   54.7030 O.2   269  GLY269     -0.2714
    114  N         20.2330   43.1570   56.0210 N.am  270  ARG270     -0.1963
    115  CA        21.3640   44.0670   56.0320 C.3   270  ARG270      0.1729
    116  C         21.6720   44.6760   54.6730 C.2   270  ARG270      0.2616
    117  O         21.9690   45.8830   54.5790 O.2   270  ARG270     -0.2715
    118  CB        22.6050   43.3230   56.5480 C.3   270  ARG270      0.0348
    119  CG        23.7580   44.2580   56.9260 C.3   270  ARG270      0.0492
    120  CD        25.0220   43.3930   57.1760 C.3   270  ARG270      0.2205
    121  NE        24.7870   42.4350   58.2480 N.pl3 270  ARG270     -0.0865
    122  CZ        24.9910   42.6390   59.5340 C.cat 270  ARG270      0.5346
    123  NH1       25.4500   43.8100   59.9970 N.pl3 270  ARG270      0.1354
    124  NH2       24.7640   41.6640   60.4120 N.pl3 270  ARG270      0.1354
    125  N         21.8260   43.8510   53.6500 N.am  271  PHE271     -0.1974
    126  CA        22.2900   44.2940   52.3430 C.3   271  PHE271      0.1639
    127  C         21.4790   45.4560   51.7970 C.2   271  PHE271      0.2290
    128  O         22.0550   46.3630   51.1760 O.2   271  PHE271     -0.2864
    129  CB        22.3110   43.1460   51.3360 C.3   271  PHE271      0.0560
    130  CG        22.7500   43.5280   49.9470 C.ar  271  PHE271     -0.0200
    131  CD1       24.0980   43.5790   49.6220 C.ar  271  PHE271     -0.0042
    132  CD2       21.8220   43.8030   48.9610 C.ar  271  PHE271     -0.0042
    133  CE1       24.5060   43.8960   48.3350 C.ar  271  PHE271     -0.0003
    134  CE2       22.2140   44.1110   47.6740 C.ar  271  PHE271     -0.0003
    135  CZ        23.5700   44.1530   47.3570 C.ar  271  PHE271     -0.0000
    136  N         20.1470   46.9470   61.6330 N.3   377  TYR377     -0.1241
    137  CA        20.3630   46.5800   63.0120 C.3   377  TYR377      0.1605
    138  C         20.8100   47.7590   63.8600 C.2   377  TYR377      0.2264
    139  O         21.6000   47.6170   64.7860 O.2   377  TYR377     -0.2867
    140  CB        21.3470   45.3950   63.1080 C.3   377  TYR377      0.0534
    141  CG        20.8360   44.2090   62.2850 C.ar  377  TYR377     -0.0201
    142  CD1       21.4290   43.8690   61.0880 C.ar  377  TYR377     -0.0009
    143  CD2       19.6470   43.5830   62.6410 C.ar  377  TYR377     -0.0009
    144  CE1       20.9190   42.8480   60.2990 C.ar  377  TYR377      0.0417
    145  CE2       19.1230   42.5680   61.8530 C.ar  377  TYR377      0.0417
    146  CZ        19.7580   42.2060   60.6910 C.ar  377  TYR377      0.1957
    147  OH        19.2210   41.2280   59.8930 O.3   377  TYR377     -0.2866
@<TRIPOS>BOND
     1   135   134   ar
     2   135   133   ar
     3   134   132   ar
     4   133   131   ar
     5    93    91    1
     6   132   130   ar
     7   131   130   ar
     8    91    92    1
     9    91    90    1
    10   130   129    1
    11   108   109    1
    12   108   107    1
    13    94    95    1
    14   109   103    1
    15    90    87    1
    16   128   127    2
    17   107   104    1
    18   129   126    1
    19    95    96    1
    20    95    98    1
    21   103   104    1
    22   103    96   am
    23   127   126    1
    24    87    86    1
    25    87    88    1
    26   126   125    1
    27   104   105    1
    28    96    97    2
    29    58    59    1
    30    98    99    1
    31    59    62    1
    32    59    60    1
    33    86    84   am
    34    88    89    2
    35   106   105    2
    36    62    63    1
    37   105   110   am
    38    60    61    2
    39    99   100    1
    40   125   116   am
    41    79    78    1
    42    79    80    1
    43    81    80    2
    44   101   100   ar
    45    64    63   ar
    46    64    66   ar
    47    84    85    2
    48    84    83    1
    49    80    82   am
    50    63    65   ar
    51   100   102   ar
    52   110   111    1
    53   117   116    2
    54    82    83    1
    55   116   115    1
    56   113   112    2
    57     1     2    1
    58    15    16    1
    59    66    67   ar
    60   112   111    1
    61   112   114   am
    62    65    67   ar
    63    19    16    1
    64    19    20    1
    65    16    17    1
    66    68    69    1
    67   114   115    1
    68   115   118    1
    69    69    72    1
    70    69    70    1
    71     2     5    1
    72     2     3    1
    73    21    20   ar
    74    20    22   ar
    75    74    76   ar
    76    74    73   ar
    77   118   119    1
    78    72    73    1
    79    37    38    1
    80   119   120    1
    81    70    71    2
    82    38    39    1
    83    38    41    1
    84     3     4    2
    85    17    18    2
    86   120   121    1
    87    76    77   ar
    88    35    34    1
    89    73    75   ar
    90    39    40    2
    91    41    42    1
    92    42    43    1
    93   121   122    2
    94    77    75   ar
    95    34    36    1
    96    34    31    1
    97    43    44    1
    98    44    45    2
    99    30    31    1
   100    31    32    1
   101   122   123    1
   102   122   124    1
   103   147   146    1
   104     6     7    1
   105    45    47    1
   106    45    46    1
   107   144   146   ar
   108   144   142   ar
   109   146   145   ar
   110    32    33    2
   111    28    27    1
   112    14    13    1
   113   142   141   ar
   114     8     7    1
   115     8     9    2
   116    23    24    1
   117     7    10    1
   118    11    10    1
   119    11    12    1
   120   136   137    1
   121   145   143   ar
   122    13    12    1
   123    24    27    1
   124    24    25    1
   125   141   143   ar
   126   141   140    1
   127    27    29    1
   128    51    50    2
   129    50    49    1
   130    52    53    1
   131    52    49    1
   132   137   140    1
   133   137   138    1
   134    25    26    2
   135    53    55   ar
   136    53    54   ar
   137    49    48    1
   138   138   139    2
   139    55    57   ar
   140    54    56   ar
   141    57    56   ar
