@<TRIPOS>MOLECULE
tmp/1knwA01.pdb
 102 96 0 0 0
SMALL
GASTEIGER

@<TRIPOS>ATOM
      1  N         13.3840   42.8520   60.0310 N.3    53  LYS53      -0.1245
      2  CA        14.0230   42.9790   61.3440 C.3    53  LYS53       0.1561
      3  C         15.2800   43.8190   61.2700 C.2    53  LYS53       0.2260
      4  O         15.7610   44.3390   62.3040 O.2    53  LYS53      -0.2867
      5  CB        14.2820   41.6450   62.0090 C.3    53  LYS53       0.0271
      6  CG        15.4530   40.8370   61.4220 C.3    53  LYS53       0.0035
      7  CD        16.0720   39.9500   62.4800 C.3    53  LYS53       0.0206
      8  CE        17.3700   39.3070   62.0840 C.3    53  LYS53       0.1093
      9  NZ        17.1470   38.2160   61.0670 N.3    53  LYS53      -0.1314
     10  N         23.3900   30.2850   62.6950 N.3   156  THR156     -0.1218
     11  CA        22.1570   30.3000   61.8950 C.3   156  THR156      0.1862
     12  C         21.8330   28.8900   61.3940 C.2   156  THR156      0.2287
     13  O         20.7410   28.6340   60.8990 O.2   156  THR156     -0.2866
     14  CB        22.3110   31.2330   60.6820 C.3   156  THR156      0.1770
     15  OG1       23.5570   30.9230   60.0400 O.3   156  THR156     -0.2211
     16  CG2       22.3040   32.6940   61.0990 C.3   156  THR156      0.0375
     17  N         17.6200   27.4030   64.9560 N.3   163  HIS163     -0.1241
     18  CA        16.8860   27.7130   63.7630 C.3   163  HIS163      0.1621
     19  C         16.5750   26.5540   62.8430 C.2   163  HIS163      0.2264
     20  O         17.4780   25.8510   62.3670 O.2   163  HIS163     -0.2867
     21  CB        17.7110   28.7520   62.9310 C.3   163  HIS163      0.0745
     22  CG        17.8250   30.0660   63.6450 C.ar  163  HIS163      0.0817
     23  ND1       16.7320   30.7580   64.1030 N.ar  163  HIS163     -0.2268
     24  CD2       18.9140   30.8300   63.9230 C.ar  163  HIS163      0.1154
     25  CE1       17.1390   31.8930   64.6600 C.ar  163  HIS163      0.1986
     26  NE2       18.4480   31.9600   64.5540 N.ar  163  HIS163     -0.2212
     27  N         18.0210   29.9030   55.7580 N.3   190  HIS190     -0.1226
     28  CA        18.6740   31.1670   56.1140 C.3   190  HIS190      0.1752
     29  C         19.9120   30.8590   56.9460 C.2   190  HIS190      0.2595
     30  O         19.8400   30.4340   58.1020 O.2   190  HIS190     -0.2718
     31  CB        17.7310   32.1240   56.8190 C.3   190  HIS190      0.0759
     32  CG        18.4130   33.3670   57.3170 C.ar  190  HIS190      0.0818
     33  ND1       19.0350   34.2580   56.4640 N.ar  190  HIS190     -0.2268
     34  CD2       18.7100   33.7700   58.5750 C.ar  190  HIS190      0.1154
     35  CE1       19.6470   35.1890   57.1860 C.ar  190  HIS190      0.1986
     36  NE2       19.4380   34.9270   58.4730 N.ar  190  HIS190     -0.2212
     37  N         21.0560   30.9200   56.2660 N.am  191  ILE191     -0.1980
     38  CA        22.3370   30.5340   56.8310 C.3   191  ILE191      0.1595
     39  C         23.3180   31.7080   56.7560 C.2   191  ILE191      0.2287
     40  O         23.7730   32.1970   57.7860 O.2   191  ILE191     -0.2864
     41  CB        22.9430   29.3450   56.0340 C.3   191  ILE191      0.0276
     42  CG1       21.9630   28.1630   56.0140 C.3   191  ILE191      0.0022
     43  CG2       24.2710   28.9210   56.6420 C.3   191  ILE191      0.0022
     44  CD1       21.6670   27.5840   57.3900 C.3   191  ILE191      0.0001
     45  N         21.7510   37.1650   54.6150 N.3   226  GLY226     -0.1225
     46  CA        23.1440   37.0140   55.0140 C.3   226  GLY226      0.1811
     47  C         24.1210   37.5740   54.0050 C.2   226  GLY226      0.2280
     48  O         25.3190   37.2750   54.0940 O.2   226  GLY226     -0.2866
     49  N         20.2330   43.1570   56.0210 N.3   270  ARG270     -0.1245
     50  CA        21.3640   44.0670   56.0320 C.3   270  ARG270      0.1563
     51  C         21.6720   44.6760   54.6730 C.2   270  ARG270      0.2260
     52  O         21.9690   45.8830   54.5790 O.2   270  ARG270     -0.2867
     53  CB        22.6050   43.3230   56.5480 C.3   270  ARG270      0.0307
     54  CG        23.7580   44.2580   56.9260 C.3   270  ARG270      0.0489
     55  CD        25.0220   43.3930   57.1760 C.3   270  ARG270      0.2205
     56  NE        24.7870   42.4350   58.2480 N.pl3 270  ARG270     -0.0865
     57  CZ        24.9910   42.6390   59.5340 C.cat 270  ARG270      0.5346
     58  NH1       25.4500   43.8100   59.9970 N.pl3 270  ARG270      0.1354
     59  NH2       24.7640   41.6640   60.4120 N.pl3 270  ARG270      0.1354
     60  N         25.4500   47.3250   68.1950 N.3   306  ARG306     -0.1245
     61  CA        26.5100   46.5840   67.5840 C.3   306  ARG306      0.1563
     62  C         27.8740   46.6250   68.1530 C.2   306  ARG306      0.2260
     63  O         28.4520   45.5550   68.5000 O.2   306  ARG306     -0.2867
     64  CB        26.4680   46.7260   66.0490 C.3   306  ARG306      0.0307
     65  CG        25.1670   46.1140   65.4900 C.3   306  ARG306      0.0489
     66  CD        25.1260   46.2190   63.9680 C.3   306  ARG306      0.2205
     67  NE        25.8600   45.1410   63.3360 N.pl3 306  ARG306     -0.0865
     68  CZ        27.0220   45.2670   62.7180 C.cat 306  ARG306      0.5346
     69  NH1       27.5920   46.4540   62.5920 N.pl3 306  ARG306      0.1354
     70  NH2       27.6430   44.2040   62.2110 N.pl3 306  ARG306      0.1354
     71  N         28.7080   43.3670   70.2240 N.3   310  TYR310     -0.1241
     72  CA        29.4400   42.4070   69.4230 C.3   310  TYR310      0.1605
     73  C         30.8390   42.8380   69.0200 C.2   310  TYR310      0.2264
     74  O         31.5280   42.0720   68.3210 O.2   310  TYR310     -0.2867
     75  CB        28.6540   42.0770   68.1350 C.3   310  TYR310      0.0534
     76  CG        27.2020   41.7420   68.3910 C.ar  310  TYR310     -0.0201
     77  CD1       26.1970   42.6200   67.9880 C.ar  310  TYR310     -0.0009
     78  CD2       26.8400   40.5880   69.0610 C.ar  310  TYR310     -0.0009
     79  CE1       24.8710   42.3400   68.2400 C.ar  310  TYR310      0.0417
     80  CE2       25.5100   40.2960   69.3170 C.ar  310  TYR310      0.0417
     81  CZ        24.5330   41.1700   68.9000 C.ar  310  TYR310      0.1957
     82  OH        23.2120   40.8850   69.1330 O.3   310  TYR310     -0.2866
     83  N         20.1470   46.9470   61.6330 N.3   377  TYR377     -0.1241
     84  CA        20.3630   46.5800   63.0120 C.3   377  TYR377      0.1605
     85  C         20.8100   47.7590   63.8600 C.2   377  TYR377      0.2264
     86  O         21.6000   47.6170   64.7860 O.2   377  TYR377     -0.2867
     87  CB        21.3470   45.3950   63.1080 C.3   377  TYR377      0.0534
     88  CG        20.8360   44.2090   62.2850 C.ar  377  TYR377     -0.0201
     89  CD1       21.4290   43.8690   61.0880 C.ar  377  TYR377     -0.0009
     90  CD2       19.6470   43.5830   62.6410 C.ar  377  TYR377     -0.0009
     91  CE1       20.9190   42.8480   60.2990 C.ar  377  TYR377      0.0417
     92  CE2       19.1230   42.5680   61.8530 C.ar  377  TYR377      0.0417
     93  CZ        19.7580   42.2060   60.6910 C.ar  377  TYR377      0.1957
     94  OH        19.2210   41.2280   59.8930 O.3   377  TYR377     -0.2866
     95  N         17.3580   47.4440   66.6340 N.3   381  MET381     -0.1245
     96  CA        17.7670   46.7870   67.8750 C.3   381  MET381      0.1570
     97  C         17.6770   47.6700   69.0990 C.2   381  MET381      0.2261
     98  O         17.9660   47.1930   70.2310 O.2   381  MET381     -0.2867
     99  CB        19.2090   46.2590   67.7230 C.3   381  MET381      0.0387
    100  CG        19.3370   45.1430   66.6820 C.3   381  MET381      0.0595
    101  SD        20.9850   44.3690   66.7480 S.3   381  MET381     -0.1393
    102  CE        20.7660   43.2440   68.1190 C.3   381  MET381      0.0692
@<TRIPOS>BOND
     1    47    48    2
     2    47    46    1
     3    52    51    2
     4    45    46    1
     5    51    50    1
     6    27    28    1
     7    42    41    1
     8    42    44    1
     9    49    50    1
    10    50    53    1
    11    41    43    1
    12    41    38    1
    13    28    31    1
    14    28    29    1
    15    37    38    1
    16    37    29   am
    17    33    35   ar
    18    33    32   ar
    19    53    54    1
    20    39    38    1
    21    39    40    2
    22    31    32    1
    23    54    55    1
    24    29    30    2
    25    55    56    1
    26    35    36   ar
    27    32    34   ar
    28    56    57    2
    29    36    34   ar
    30    57    58    1
    31    57    59    1
    32    94    93    1
    33     1     2    1
    34    15    14    1
    35    91    93   ar
    36    91    89   ar
    37    14    16    1
    38    14    11    1
    39    93    92   ar
    40    13    12    2
    41     9     8    1
    42    89    88   ar
    43     3     2    1
    44     3     4    2
    45     2     5    1
    46    12    11    1
    47     6     5    1
    48     6     7    1
    49    83    84    1
    50    92    90   ar
    51    11    10    1
    52     8     7    1
    53    70    68    1
    54    88    90   ar
    55    88    87    1
    56    20    19    2
    57    69    68    1
    58    68    67    2
    59    19    18    1
    60    21    22    1
    61    21    18    1
    62    84    87    1
    63    84    85    1
    64    67    66    1
    65    22    24   ar
    66    22    23   ar
    67    18    17    1
    68    85    86    2
    69    24    26   ar
    70    66    65    1
    71    23    25   ar
    72    26    25   ar
    73    65    64    1
    74    64    61    1
    75    95    96    1
    76   100   101    1
    77   100    99    1
    78   101   102    1
    79    61    62    1
    80    61    60    1
    81    99    96    1
    82    96    97    1
    83    77    79   ar
    84    77    76   ar
    85    75    76    1
    86    75    72    1
    87    62    63    2
    88    79    81   ar
    89    74    73    2
    90    76    78   ar
    91    81    82    1
    92    81    80   ar
    93    73    72    1
    94    78    80   ar
    95    97    98    2
    96    72    71    1
