@<TRIPOS>MOLECULE
tmp/1knyA00.pdb
 162 152 0 0 0
SMALL
GASTEIGER

@<TRIPOS>ATOM
      1  N          6.1610   47.6240   38.5940 N.3    37  TYR37      -0.1227
      2  CA         6.9080   47.0850   37.5070 C.3    37  TYR37       0.1736
      3  C          7.3030   45.6810   37.9120 C.2    37  TYR37       0.2596
      4  O          6.8880   45.2290   39.0050 O.2    37  TYR37      -0.2718
      5  CB         8.0040   48.0000   36.8540 C.3    37  TYR37       0.0548
      6  CG         9.1290   48.4550   37.7410 C.ar   37  TYR37      -0.0200
      7  CD1        8.9570   49.4910   38.6610 C.ar   37  TYR37      -0.0009
      8  CD2       10.3780   47.8420   37.6980 C.ar   37  TYR37      -0.0009
      9  CE1        9.9830   49.9040   39.5120 C.ar   37  TYR37       0.0417
     10  CE2       11.4200   48.2310   38.5450 C.ar   37  TYR37       0.0417
     11  CZ        11.2210   49.2690   39.4490 C.ar   37  TYR37       0.1957
     12  OH        12.2150   49.6600   40.2930 O.3    37  TYR37      -0.2866
     13  N          8.0220   44.9820   37.0300 N.am   38  GLY38      -0.1942
     14  CA         8.4440   43.6170   37.2970 C.3    38  GLY38       0.2014
     15  C          7.3290   42.5890   37.1470 C.2    38  GLY38       0.2639
     16  O          6.2370   42.8670   36.6410 O.2    38  GLY38      -0.2714
     17  N          7.6400   41.3810   37.6150 N.am   39  SER39      -0.1949
     18  CA         6.7270   40.2650   37.6010 C.3    39  SER39       0.1924
     19  C          5.3360   40.6760   38.0930 C.2    39  SER39       0.2314
     20  O          4.3140   40.3720   37.5080 O.2    39  SER39      -0.2863
     21  CB         7.2870   39.1030   38.3940 C.3    39  SER39       0.2116
     22  OG         7.6140   39.5020   39.7050 O.3    39  SER39      -0.2180
     23  N          3.5870   42.7410   35.6640 N.3    42  ARG42      -0.1245
     24  CA         3.3530   41.8530   34.5260 C.3    42  ARG42       0.1563
     25  C          2.2190   40.9010   34.8680 C.2    42  ARG42       0.2260
     26  O          1.5340   40.3760   33.9820 O.2    42  ARG42      -0.2867
     27  CB         4.5950   40.9780   34.2490 C.3    42  ARG42       0.0307
     28  CG         5.6690   41.4880   33.2750 C.3    42  ARG42       0.0489
     29  CD         6.8410   40.4880   33.0620 C.3    42  ARG42       0.2205
     30  NE         8.0830   40.8530   33.7730 N.pl3  42  ARG42      -0.0865
     31  CZ         8.7530   40.0530   34.6060 C.cat  42  ARG42       0.5346
     32  NH1        8.3580   38.7940   34.8600 N.pl3  42  ARG42       0.1354
     33  NH2        9.8580   40.5220   35.2100 N.pl3  42  ARG42       0.1354
     34  N          2.8100   38.1220   36.5560 N.3    44  THR44      -0.1218
     35  CA         3.4610   36.8460   36.3260 C.3    44  THR44       0.1862
     36  C          4.2840   36.4930   37.5530 C.2    44  THR44       0.2287
     37  O          5.0570   35.5420   37.5430 O.2    44  THR44      -0.2866
     38  CB         4.4300   36.9650   35.1470 C.3    44  THR44       0.1770
     39  OG1        5.5620   37.6970   35.5820 O.3    44  THR44      -0.2211
     40  CG2        3.7680   37.6710   33.9730 C.3    44  THR44       0.0375
     41  N          5.8150   35.2420   40.8820 N.3    46  GLY46      -0.1225
     42  CA         5.9390   33.9400   41.4330 C.3    46  GLY46       0.1811
     43  C          5.8560   33.9720   42.9200 C.2    46  GLY46       0.2280
     44  O          5.8160   35.0150   43.5350 O.2    46  GLY46      -0.2866
     45  N          8.6270   35.9750   44.6070 N.3    49  SER49      -0.1202
     46  CA         8.8480   37.2870   44.0280 C.3    49  SER49       0.2020
     47  C          8.9030   38.5150   44.9720 C.2    49  SER49       0.2618
     48  O          8.4060   38.5120   46.1190 O.2    49  SER49      -0.2717
     49  CB         8.2600   37.5350   42.6300 C.3    49  SER49       0.2103
     50  OG         7.8860   36.3140   42.0000 O.3    49  SER49      -0.2182
     51  N          9.5010   39.5770   44.4330 N.am   50  ASP50      -0.1973
     52  CA         9.7060   40.8180   45.1390 C.3    50  ASP50       0.1709
     53  C          8.7950   41.9060   44.6120 C.2    50  ASP50       0.2293
     54  O          8.0220   41.7130   43.6650 O.2    50  ASP50      -0.2864
     55  CB        11.2320   41.1350   45.2090 C.3    50  ASP50       0.1436
     56  CG        11.7800   42.2650   44.4250 C.2    50  ASP50       0.3671
     57  OD1       12.1000   42.0600   43.2960 O.co2  50  ASP50      -0.2456
     58  OD2       12.0340   43.3890   45.1170 O.co2  50  ASP50      -0.2456
     59  N          8.7880   45.6360   43.1680 N.3    52  GLU52      -0.1245
     60  CA         9.5150   46.7820   42.7610 C.3    52  GLU52       0.1567
     61  C          8.4790   47.8160   42.4050 C.2    52  GLU52       0.2260
     62  O          7.4280   47.5060   41.8510 O.2    52  GLU52      -0.2867
     63  CB        10.2710   46.4420   41.4710 C.3    52  GLU52       0.0388
     64  CG        11.1690   45.1910   41.5140 C.3    52  GLU52       0.1160
     65  CD        10.4950   43.8980   41.0820 C.2    52  GLU52       0.3649
     66  OE1        9.3080   43.7920   40.8080 O.co2  52  GLU52      -0.2457
     67  OE2       11.3500   42.8920   41.0010 O.co2  52  GLU52      -0.2457
     68  N         11.1240   47.4150   46.8490 N.3    76  GLU76      -0.1245
     69  CA        12.0140   48.4010   46.2670 C.3    76  GLU76       0.1567
     70  C         11.1950   49.4370   45.5740 C.2    76  GLU76       0.2260
     71  O         10.3520   49.1340   44.7000 O.2    76  GLU76      -0.2867
     72  CB        12.9700   47.7480   45.2580 C.3    76  GLU76       0.0388
     73  CG        13.8180   48.7830   44.5180 C.3    76  GLU76       0.1160
     74  CD        14.6070   48.1480   43.4090 C.2    76  GLU76       0.3649
     75  OE1       14.5670   46.8620   43.4310 O.co2  76  GLU76      -0.2457
     76  OE2       15.2250   48.7600   42.5800 O.co2  76  GLU76      -0.2457
     77  N         16.0870   58.9860   31.4600 N.3    88  TYR88      -0.1241
     78  CA        16.5010   57.6500   31.7110 C.3    88  TYR88       0.1605
     79  C         15.8470   56.7040   30.7380 C.2    88  TYR88       0.2264
     80  O         16.5080   55.9030   30.0850 O.2    88  TYR88      -0.2867
     81  CB        16.1530   57.3070   33.1390 C.3    88  TYR88       0.0534
     82  CG        16.4890   55.8980   33.4680 C.ar   88  TYR88      -0.0201
     83  CD1       17.6470   55.2890   32.9820 C.ar   88  TYR88      -0.0009
     84  CD2       15.6310   55.1700   34.2910 C.ar   88  TYR88      -0.0009
     85  CE1       17.9320   53.9590   33.2980 C.ar   88  TYR88       0.0417
     86  CE2       15.9160   53.8530   34.6420 C.ar   88  TYR88       0.0417
     87  CZ        17.0660   53.2480   34.1330 C.ar   88  TYR88       0.1957
     88  OH        17.3590   51.9550   34.4930 O.3    88  TYR88      -0.2866
     89  N         22.9120   47.1780   28.3670 N.3    95  ASP95      -0.1239
     90  CA        22.0160   46.2960   29.1100 C.3    95  ASP95       0.1674
     91  C         20.5810   46.7530   29.0580 C.2    95  ASP95       0.2266
     92  O         19.7520   46.4980   29.9250 O.2    95  ASP95      -0.2867
     93  CB        22.5110   46.0640   30.5390 C.3    95  ASP95       0.1410
     94  CG        22.6030   47.2560   31.4540 C.2    95  ASP95       0.3668
     95  OD1       22.8460   48.3730   30.8500 O.co2  95  ASP95      -0.2456
     96  OD2       22.4830   47.1610   32.6680 O.co2  95  ASP95      -0.2456
     97  N         17.8820   44.4020   29.1570 N.3    98  LEU98      -0.1231
     98  CA        17.6980   43.8500   30.4870 C.3    98  LEU98       0.1693
     99  C         16.9600   44.8000   31.3730 C.2    98  LEU98       0.2592
    100  O         16.0380   44.3770   32.0590 O.2    98  LEU98      -0.2718
    101  CB        19.0310   43.6030   31.1920 C.3    98  LEU98       0.0284
    102  CG        19.1890   42.2610   31.9060 C.3    98  LEU98       0.0019
    103  CD1       20.1000   42.4540   33.0880 C.3    98  LEU98       0.0001
    104  CD2       17.8970   41.6110   32.3710 C.3    98  LEU98       0.0001
    105  N         17.4400   46.0600   31.3690 N.am   99  THR99      -0.1953
    106  CA        16.9210   47.1400   32.1760 C.3    99  THR99       0.1897
    107  C         15.6200   47.7850   31.7180 C.2    99  THR99       0.2313
    108  O         14.7300   48.0440   32.5180 O.2    99  THR99      -0.2863
    109  CB        17.9720   48.2490   32.3070 C.3    99  THR99       0.1794
    110  OG1       18.1780   48.9010   31.0680 O.3    99  THR99      -0.2208
    111  CG2       19.2580   47.6300   32.8070 C.3    99  THR99       0.0378
    112  N         13.0420   46.7790   30.0580 N.3   101  GLY101     -0.1210
    113  CA        11.7520   46.1220   29.8610 C.3   101  GLY101      0.1956
    114  C         10.7550   46.6140   30.9190 C.2   101  GLY101      0.2611
    115  O          9.5370   46.4290   30.8630 O.2   101  GLY101     -0.2717
    116  N         11.3270   47.2390   31.9180 N.am  102  GLN102     -0.1979
    117  CA        10.6030   47.7870   33.0280 C.3   102  GLN102      0.1601
    118  C          9.6460   48.9000   32.6220 C.2   102  GLN102      0.2287
    119  O          8.7170   49.2220   33.3510 O.2   102  GLN102     -0.2864
    120  CB        11.6460   48.3820   33.9850 C.3   102  GLN102      0.0394
    121  CG        11.2990   49.7890   34.4890 C.3   102  GLN102      0.0908
    122  CD        12.4570   50.3940   35.2460 C.2   102  GLN102      0.2608
    123  OE1       12.2790   51.1530   36.2400 O.2   102  GLN102     -0.2717
    124  NE2       13.6500   50.0380   34.7660 N.am  102  GLN102     -0.0878
    125  N          6.2020   47.3350   31.0500 N.3   105  SER105     -0.1217
    126  CA         5.5540   46.4500   32.0000 C.3   105  SER105      0.1889
    127  C          4.8920   47.1330   33.1960 C.2   105  SER105      0.2288
    128  O          4.3160   46.4600   34.0450 O.2   105  SER105     -0.2866
    129  CB         6.5330   45.3780   32.4710 C.3   105  SER105      0.2089
    130  OG         7.2610   45.8210   33.6020 O.3   105  SER105     -0.2183
    131  N         14.0360   41.9130   27.5060 N.3   185  TYR185     -0.1227
    132  CA        13.7280   40.5870   28.0280 C.3   185  TYR185      0.1736
    133  C         12.7570   40.6900   29.1870 C.2   185  TYR185      0.2596
    134  O         12.7680   41.6880   29.9250 O.2   185  TYR185     -0.2718
    135  CB        14.9830   39.7750   28.4030 C.3   185  TYR185      0.0548
    136  CG        15.8920   39.6590   27.2120 C.ar  185  TYR185     -0.0200
    137  CD1       15.6150   38.7170   26.2240 C.ar  185  TYR185     -0.0009
    138  CD2       16.9900   40.5000   27.0400 C.ar  185  TYR185     -0.0009
    139  CE1       16.4180   38.5900   25.0940 C.ar  185  TYR185      0.0417
    140  CE2       17.7960   40.4030   25.9070 C.ar  185  TYR185      0.0417
    141  CZ        17.5080   39.4400   24.9410 C.ar  185  TYR185      0.1957
    142  OH        18.2970   39.3220   23.8370 O.3   185  TYR185     -0.2866
    143  N         11.9050   39.6610   29.3090 N.am  186  THR186     -0.1939
    144  CA        10.9090   39.6100   30.3550 C.3   186  THR186      0.2028
    145  C         11.6100   39.7760   31.6800 C.2   186  THR186      0.2643
    146  O         11.6820   40.8720   32.2310 O.2   186  THR186     -0.2714
    147  CB        10.0980   38.3100   30.2640 C.3   186  THR186      0.1808
    148  OG1       10.9860   37.2230   30.1520 O.3   186  THR186     -0.2208
    149  CG2        9.2280   38.3620   29.0140 C.3   186  THR186      0.0379
    150  N         12.2050   38.7070   32.1470 N.am  187  THR187     -0.1936
    151  CA        12.9600   38.7850   33.3580 C.3   187  THR187      0.2028
    152  C         14.4260   38.4790   33.0660 C.2   187  THR187      0.2642
    153  O         14.8280   38.2690   31.9200 O.2   187  THR187     -0.2714
    154  CB        12.3430   37.8860   34.4480 C.3   187  THR187      0.1808
    155  OG1       13.2490   37.7160   35.5330 O.3   187  THR187     -0.2208
    156  CG2       11.9480   36.5330   33.8410 C.3   187  THR187      0.0379
    157  N         15.2300   38.4640   34.1130 N.am  188  SER188     -0.1949
    158  CA        16.6460   38.1790   34.0230 C.3   188  SER188      0.1924
    159  C         16.9080   36.7150   33.7010 C.2   188  SER188      0.2314
    160  O         17.9230   36.3470   33.0730 O.2   188  SER188     -0.2863
    161  CB        17.2810   38.5330   35.3600 C.3   188  SER188      0.2116
    162  OG        16.5330   39.5830   35.9430 O.3   188  SER188     -0.2180
@<TRIPOS>BOND
     1   142   141    1
     2   141   139   ar
     3   141   140   ar
     4   139   137   ar
     5   140   138   ar
     6   137   136   ar
     7   138   136   ar
     8   136   135    1
     9   131   132    1
    10   132   135    1
    11   132   133    1
    12    89    90    1
    13   149   147    1
    14    91    90    1
    15    91    92    2
    16    90    93    1
    17    97    98    1
    18   133   143   am
    19   133   134    2
    20   143   144    1
    21   113   112    1
    22   113   114    1
    23    80    79    2
    24   148   147    1
    25   147   144    1
    26   144   145    1
    27    98   101    1
    28    98    99    1
    29    93    94    1
    30    79    78    1
    31    95    94   ar
    32   115   114    2
    33   114   116   am
    34   125   126    1
    35   110   109    1
    36   101   102    1
    37   105    99   am
    38   105   106    1
    39    99   100    2
    40    94    96   ar
    41    77    78    1
    42   145   150   am
    43   145   146    2
    44    78    81    1
    45   107   106    1
    46   107   108    2
    47   102   104    1
    48   102   103    1
    49   116   117    1
    50   153   152    2
    51   126   129    1
    52   126   127    1
    53   150   151    1
    54   106   109    1
    55   109   111    1
    56   129   130    1
    57   118   117    1
    58   118   119    2
    59    83    85   ar
    60    83    82   ar
    61   117   120    1
    62    29    28    1
    63    29    30    1
    64   152   151    1
    65   152   157   am
    66   160   159    2
    67    81    82    1
    68   127   128    2
    69    28    27    1
    70    85    87   ar
    71   151   154    1
    72    82    84   ar
    73   159   158    1
    74    30    31    2
    75   156   154    1
    76    40    38    1
    77    26    25    2
    78   120   121    1
    79   158   157    1
    80   158   161    1
    81    87    88    1
    82    87    86   ar
    83    27    24    1
    84    84    86   ar
    85   154   155    1
    86   121   122    1
    87    24    25    1
    88    24    23    1
    89    31    32    1
    90    31    33    1
    91   124   122   am
    92    38    39    1
    93    38    35    1
    94   122   123    2
    95   161   162    1
    96    35    34    1
    97    35    36    1
    98    16    15    2
    99     5     2    1
   100     5     6    1
   101    13    14    1
   102    13     3   am
   103    15    14    1
   104    15    17   am
   105     2     3    1
   106     2     1    1
   107    20    19    2
   108    37    36    2
   109    18    17    1
   110    18    19    1
   111    18    21    1
   112     8     6   ar
   113     8    10   ar
   114     6     7   ar
   115     3     4    2
   116    21    22    1
   117    10    11   ar
   118     7     9   ar
   119    11     9   ar
   120    11    12    1
   121    66    65   ar
   122    41    42    1
   123    67    65   ar
   124    65    64    1
   125    42    43    1
   126    63    64    1
   127    63    60    1
   128    62    61    2
   129    50    49    1
   130    61    60    1
   131    76    74   ar
   132    49    46    1
   133    60    59    1
   134    43    44    2
   135    57    56   ar
   136    74    75   ar
   137    74    73    1
   138    54    53    2
   139    46    45    1
   140    46    47    1
   141    56    58   ar
   142    56    55    1
   143    51    47   am
   144    51    52    1
   145    73    72    1
   146    53    52    1
   147    71    70    2
   148    47    48    2
   149    52    55    1
   150    72    69    1
   151    70    69    1
   152    69    68    1
