@<TRIPOS>MOLECULE
tmp/1knyA01.pdb
 96 90 0 0 0
SMALL
GASTEIGER

@<TRIPOS>ATOM
      1  N         21.5470   51.5040   26.3500 N.3    93  GLU93      -0.1231
      2  CA        22.8290   51.0640   26.8080 C.3    93  GLU93       0.1699
      3  C         22.9930   49.5540   26.6590 C.2    93  GLU93       0.2593
      4  O         22.0620   48.8170   26.3370 O.2    93  GLU93      -0.2718
      5  CB        23.0290   51.4850   28.2630 C.3    93  GLU93       0.0402
      6  CG        22.8840   52.9990   28.4290 C.3    93  GLU93       0.1161
      7  CD        24.0340   53.5710   29.1900 C.2    93  GLU93       0.3649
      8  OE1       24.1580   53.4360   30.4000 O.co2  93  GLU93      -0.2457
      9  OE2       24.9010   54.1970   28.4130 O.co2  93  GLU93      -0.2457
     10  N         24.2110   49.1190   26.8730 N.am   94  SER94      -0.1938
     11  CA        24.6210   47.7490   26.7340 C.3    94  SER94       0.2055
     12  C         23.7130   46.7320   27.3800 C.2    94  SER94       0.2643
     13  O         23.7790   45.5580   27.0150 O.2    94  SER94      -0.2714
     14  CB        26.0400   47.6340   27.2800 C.3    94  SER94       0.2130
     15  OG        26.7330   48.8590   27.0770 O.3    94  SER94      -0.2179
     16  N         22.9120   47.1780   28.3670 N.am   95  ASP95      -0.1971
     17  CA        22.0160   46.2960   29.1100 C.3    95  ASP95       0.1709
     18  C         20.5810   46.7530   29.0580 C.2    95  ASP95       0.2293
     19  O         19.7520   46.4980   29.9250 O.2    95  ASP95      -0.2864
     20  CB        22.5110   46.0640   30.5390 C.3    95  ASP95       0.1436
     21  CG        22.6030   47.2560   31.4540 C.2    95  ASP95       0.3671
     22  OD1       22.8460   48.3730   30.8500 O.co2  95  ASP95      -0.2456
     23  OD2       22.4830   47.1610   32.6680 O.co2  95  ASP95      -0.2456
     24  N         17.8820   44.4020   29.1570 N.3    98  LEU98      -0.1245
     25  CA        17.6980   43.8500   30.4870 C.3    98  LEU98       0.1561
     26  C         16.9600   44.8000   31.3730 C.2    98  LEU98       0.2260
     27  O         16.0380   44.3770   32.0590 O.2    98  LEU98      -0.2867
     28  CB        19.0310   43.6030   31.1920 C.3    98  LEU98       0.0270
     29  CG        19.1890   42.2610   31.9060 C.3    98  LEU98       0.0019
     30  CD1       20.1000   42.4540   33.0880 C.3    98  LEU98       0.0001
     31  CD2       17.8970   41.6110   32.3710 C.3    98  LEU98       0.0001
     32  N         33.9930   48.0300   24.2020 N.3   141  GLU141     -0.1182
     33  CA        33.9840   47.9710   25.6390 C.3   141  GLU141      0.1915
     34  C         33.7240   46.6200   26.2500 C.2   141  GLU141      0.2634
     35  O         34.0900   46.3950   27.3750 O.2   141  GLU141     -0.2714
     36  CB        33.0380   49.0140   26.2900 C.2   141  GLU141      0.0085
     37  CG        32.8960   50.3600   25.5270 C.2   141  GLU141      0.0835
     38  CD        31.9710   51.3900   26.1860 C.2   141  GLU141      0.3877
     39  OE1       30.8460   50.8890   26.6590 O.co2 141  GLU141     -0.2406
     40  OE2       32.2450   52.5770   26.2460 O.co2 141  GLU141     -0.2406
     41  N         33.0430   45.7290   25.5900 N.am  142  GLU142     -0.1977
     42  CA        32.7920   44.4810   26.2780 C.3   142  GLU142      0.1602
     43  C         33.3410   43.2580   25.6140 C.2   142  GLU142      0.2287
     44  O         34.4110   42.8000   25.9970 O.2   142  GLU142     -0.2864
     45  CB        31.3320   44.3070   26.6660 C.3   142  GLU142      0.0415
     46  CG        30.9320   45.4500   27.6170 C.3   142  GLU142      0.1163
     47  CD        29.4630   45.5220   27.8650 C.2   142  GLU142      0.3649
     48  OE1       28.8700   44.3380   28.1090 O.co2 142  GLU142     -0.2457
     49  OE2       28.9010   46.5930   27.8370 O.co2 142  GLU142     -0.2457
     50  N         37.0130   42.8260   25.2680 N.3   145  GLU145     -0.1231
     51  CA        37.6690   42.5710   26.5440 C.3   145  GLU145      0.1699
     52  C         37.6330   41.1060   26.9830 C.2   145  GLU145      0.2592
     53  O         38.6800   40.5120   27.2310 O.2   145  GLU145     -0.2718
     54  CB        37.1730   43.5380   27.6220 C.3   145  GLU145      0.0402
     55  CG        38.2860   43.9340   28.5800 C.3   145  GLU145      0.1161
     56  CD        37.9200   45.1250   29.3910 C.2   145  GLU145      0.3649
     57  OE1       36.7730   45.4320   29.6610 O.co2 145  GLU145     -0.2457
     58  OE2       39.0090   45.7530   29.8820 O.co2 145  GLU145     -0.2457
     59  N         36.4340   40.5230   27.0520 N.am  146  TYR146     -0.1976
     60  CA        36.2730   39.1200   27.3760 C.3   146  TYR146      0.1639
     61  C         37.1950   38.3050   26.4810 C.2   146  TYR146      0.2290
     62  O         37.9390   37.4630   26.9580 O.2   146  TYR146     -0.2864
     63  CB        34.8180   38.6960   27.0660 C.3   146  TYR146      0.0560
     64  CG        33.7980   39.4850   27.8480 C.ar  146  TYR146     -0.0198
     65  CD1       34.0440   39.8710   29.1680 C.ar  146  TYR146     -0.0009
     66  CD2       32.5920   39.8550   27.2500 C.ar  146  TYR146     -0.0009
     67  CE1       33.0930   40.6000   29.8810 C.ar  146  TYR146      0.0417
     68  CE2       31.6380   40.5960   27.9430 C.ar  146  TYR146      0.0417
     69  CZ        31.8970   40.9650   29.2640 C.ar  146  TYR146      0.1957
     70  OH        30.9920   41.7080   29.9640 O.3   146  TYR146     -0.2866
     71  N         40.6410   38.3530   27.9210 N.3   149  LYS149     -0.1245
     72  CA        40.7050   37.4840   29.0790 C.3   149  LYS149      0.1561
     73  C         40.6000   36.0060   28.7190 C.2   149  LYS149      0.2260
     74  O         41.3310   35.1810   29.2730 O.2   149  LYS149     -0.2867
     75  CB        39.6510   37.7920   30.1040 C.3   149  LYS149      0.0271
     76  CG        39.4710   39.2710   30.4180 C.3   149  LYS149      0.0035
     77  CD        38.5450   39.5120   31.6170 C.3   149  LYS149      0.0206
     78  CE        38.7440   40.8570   32.3210 C.3   149  LYS149      0.1093
     79  NZ        37.6180   41.7880   32.1150 N.3   149  LYS149     -0.1314
     80  N         29.1190   35.5290   31.5170 N.3   168  GLN168     -0.1196
     81  CA        29.1740   36.9470   31.2120 C.3   168  GLN168      0.1782
     82  C         29.0070   37.1240   29.6980 C.2   168  GLN168      0.2306
     83  O         28.1380   37.8550   29.1880 O.2   168  GLN168     -0.2863
     84  CB        30.5300   37.5390   31.6400 C.2   168  GLN168      0.0051
     85  CG        30.6420   38.2490   33.0330 C.2   168  GLN168      0.0584
     86  CD        32.0840   38.4430   33.6090 C.2   168  GLN168      0.2840
     87  OE1       33.0700   38.7300   32.8910 O.2   168  GLN168     -0.2667
     88  NE2       32.2240   38.2830   34.9360 N.am  168  GLN168     -0.0837
     89  N         22.4540   40.6630   25.0340 N.3   175  MET175     -0.1245
     90  CA        22.1590   42.0630   25.0200 C.3   175  MET175      0.1570
     91  C         22.4040   42.5900   23.6330 C.2   175  MET175      0.2261
     92  O         21.8340   43.5850   23.1760 O.2   175  MET175     -0.2867
     93  CB        23.1240   42.7640   25.9770 C.3   175  MET175      0.0387
     94  CG        22.9920   42.2380   27.3810 C.3   175  MET175      0.0595
     95  SD        21.3690   42.5650   28.0460 S.3   175  MET175     -0.1393
     96  CE        20.7040   40.8910   28.0140 C.3   175  MET175      0.0692
@<TRIPOS>BOND
     1    92    91    2
     2    91    90    1
     3    32    33    1
     4    90    89    1
     5    90    93    1
     6    50    51    1
     7    37    38    1
     8    37    36    2
     9    41    34   am
    10    41    42    1
    11    43    44    2
    12    43    42    1
    13    33    34    1
    14    33    36    1
    15    93    94    1
    16    38    40   ar
    17    38    39   ar
    18    34    35    2
    19    42    45    1
    20     4     3    2
    21     1     2    1
    22    61    62    2
    23    61    60    1
    24    51    52    1
    25    51    54    1
    26     3     2    1
    27     3    10   am
    28    45    46    1
    29    11    10    1
    30    11    14    1
    31    11    12    1
    32     2     5    1
    33    52    59   am
    34    52    53    2
    35    13    12    2
    36    59    60    1
    37    63    60    1
    38    63    64    1
    39    15    14    1
    40    66    64   ar
    41    66    68   ar
    42    12    16   am
    43    94    95    1
    44    46    47    1
    45    54    55    1
    46    49    47   ar
    47    64    65   ar
    48    47    48   ar
    49    71    72    1
    50    68    69   ar
    51    96    95    1
    52     5     6    1
    53    16    17    1
    54     9     7   ar
    55     6     7    1
    56    55    56    1
    57    73    72    1
    58    73    74    2
    59    18    17    1
    60    18    19    2
    61    72    75    1
    62    17    20    1
    63    24    25    1
    64    65    67   ar
    65    83    82    2
    66     7     8   ar
    67    69    67   ar
    68    69    70    1
    69    56    57   ar
    70    56    58   ar
    71    82    81    1
    72    75    76    1
    73    76    77    1
    74    25    28    1
    75    25    26    1
    76    20    21    1
    77    22    21   ar
    78    28    29    1
    79    81    80    1
    80    81    84    1
    81    26    27    2
    82    21    23   ar
    83    77    78    1
    84    84    85    2
    85    29    31    1
    86    29    30    1
    87    79    78    1
    88    87    86    2
    89    85    86    1
    90    86    88   am
