@<TRIPOS>MOLECULE
tmp/1ko5A00.pdb
 137 129 0 0 0
SMALL
GASTEIGER

@<TRIPOS>ATOM
      1  N          0.2900  -17.5460   21.3690 N.3    15  SER15      -0.1202
      2  CA         0.0080  -17.5210   19.9520 C.3    15  SER15       0.2020
      3  C         -1.4210  -17.9910   19.6900 C.2    15  SER15       0.2619
      4  O         -1.8530  -19.0120   20.2300 O.2    15  SER15      -0.2717
      5  CB         0.9740  -18.4560   19.2310 C.3    15  SER15       0.2103
      6  OG         1.0810  -18.1220   17.8520 O.3    15  SER15      -0.2182
      7  N         -2.1610  -17.2480   18.8670 N.am   16  GLY16      -0.1942
      8  CA        -3.5370  -17.6030   18.5710 C.3    16  GLY16       0.2014
      9  C         -4.5530  -17.0700   19.5700 C.2    16  GLY16       0.2640
     10  O         -5.7440  -17.4220   19.5320 O.2    16  GLY16      -0.2714
     11  N         -4.1190  -16.2000   20.4610 N.am   17  SER17      -0.1935
     12  CA        -5.0260  -15.7360   21.4930 C.3    17  SER17       0.2055
     13  C         -5.7500  -14.4750   21.0840 C.2    17  SER17       0.2644
     14  O         -6.6150  -14.0220   21.8000 O.2    17  SER17      -0.2714
     15  CB        -4.2940  -15.5200   22.8200 C.3    17  SER17       0.2130
     16  OG        -3.2880  -14.5340   22.6980 O.3    17  SER17      -0.2179
     17  N         -5.3610  -13.9010   19.9560 N.am   18  GLY18      -0.1939
     18  CA        -6.0410  -12.7360   19.4080 C.3    18  GLY18       0.2014
     19  C         -5.2850  -11.4150   19.4570 C.2    18  GLY18       0.2639
     20  O         -5.8520  -10.3620   19.1320 O.2    18  GLY18      -0.2714
     21  N         -4.0190  -11.4570   19.8690 N.am   19  LYS19      -0.1963
     22  CA        -3.2600  -10.2300   20.0630 C.3    19  LYS19       0.1728
     23  C         -3.3320   -9.3090   18.8640 C.2    19  LYS19       0.2617
     24  O         -3.7080   -8.1520   19.0040 O.2    19  LYS19      -0.2715
     25  CB        -1.7850  -10.5080   20.4490 C.3    19  LYS19       0.0311
     26  CG        -1.6230  -11.3220   21.7250 C.3    19  LYS19       0.0038
     27  CD        -0.1530  -11.4750   22.0810 C.3    19  LYS19       0.0206
     28  CE         0.5890  -12.1240   20.9370 C.3    19  LYS19       0.1093
     29  NZ         0.1190  -13.5360   20.7760 N.3    19  LYS19      -0.1314
     30  N         -2.9660   -9.8070   17.6830 N.am   20  SER20      -0.1936
     31  CA        -3.0140   -8.9440   16.4940 C.3    20  SER20       0.2055
     32  C         -4.4380   -8.4670   16.1210 C.2    20  SER20       0.2643
     33  O         -4.6320   -7.2920   15.7830 O.2    20  SER20      -0.2714
     34  CB        -2.3460   -9.6090   15.2970 C.3    20  SER20       0.2130
     35  OG        -1.0530  -10.0510   15.6760 O.3    20  SER20      -0.2179
     36  N         -5.4160   -9.3680   16.1670 N.am   21  ALA21      -0.1963
     37  CA        -6.7740   -8.9930   15.7630 C.3    21  ALA21       0.1728
     38  C         -7.2940   -7.9620   16.7370 C.2    21  ALA21       0.2616
     39  O         -7.6840   -6.8760   16.3420 O.2    21  ALA21      -0.2715
     40  CB        -7.7040  -10.2030   15.7430 C.3    21  ALA21       0.0334
     41  N         -7.2760   -8.2880   18.0230 N.am   22  VAL22      -0.1977
     42  CA        -7.7680   -7.3370   18.9990 C.3    22  VAL22       0.1596
     43  C         -7.0510   -5.9870   18.9080 C.2    22  VAL22       0.2287
     44  O         -7.6930   -4.9340   18.7780 O.2    22  VAL22      -0.2864
     45  CB        -7.6300   -7.8840   20.4010 C.3    22  VAL22       0.0276
     46  CG1       -7.9700   -6.7920   21.4450 C.3    22  VAL22       0.0022
     47  CG2       -8.5140   -9.1250   20.5470 C.3    22  VAL22       0.0022
     48  N          6.9710   -7.6960   16.9890 N.3    38  ASP38      -0.1239
     49  CA         7.8820   -8.4850   16.1530 C.3    38  ASP38       0.1674
     50  C          8.7810   -7.6010   15.2760 C.2    38  ASP38       0.2266
     51  O          9.8220   -8.0540   14.8180 O.2    38  ASP38      -0.2867
     52  CB         7.1560   -9.4800   15.2130 C.3    38  ASP38       0.1410
     53  CG         6.2780  -10.4970   15.9470 C.2    38  ASP38       0.3668
     54  OD1        6.2780  -10.5650   17.2060 O.co2  38  ASP38      -0.2456
     55  OD2        5.5330  -11.2890   15.3140 O.co2  38  ASP38      -0.2456
     56  N          1.9220   -5.0260   20.5370 N.3    84  VAL84      -0.1245
     57  CA         1.6400   -6.4560   20.4920 C.3    84  VAL84       0.1561
     58  C          2.9180   -7.1920   20.8590 C.2    84  VAL84       0.2260
     59  O          3.9430   -6.9810   20.2270 O.2    84  VAL84      -0.2867
     60  CB         1.1470   -6.9410   19.1160 C.3    84  VAL84       0.0252
     61  CG1        1.0940   -8.4770   19.0660 C.3    84  VAL84       0.0019
     62  CG2       -0.2420   -6.3980   18.8340 C.3    84  VAL84       0.0019
     63  N          3.6930  -11.1800   22.8200 N.3    86  SER86      -0.1217
     64  CA         3.2170  -12.3170   23.5880 C.3    86  SER86       0.1889
     65  C          3.6040  -12.2420   25.0670 C.2    86  SER86       0.2288
     66  O          2.7930  -12.5600   25.9250 O.2    86  SER86      -0.2866
     67  CB         3.6710  -13.6390   22.9650 C.3    86  SER86       0.2089
     68  OG         5.0770  -13.7810   23.0220 O.3    86  SER86      -0.2183
     69  N         -9.5480  -22.0120   17.2710 N.3   118  ARG118     -0.1231
     70  CA        -9.3550  -20.7720   16.5340 C.3   118  ARG118      0.1694
     71  C         -8.1440  -20.8440   15.6050 C.2   118  ARG118      0.2591
     72  O         -8.1720  -20.2950   14.5070 O.2   118  ARG118     -0.2718
     73  CB        -9.2650  -19.5860   17.4800 C.3   118  ARG118      0.0321
     74  CG       -10.6280  -19.1460   17.9710 C.3   118  ARG118      0.0489
     75  CD       -10.5370  -18.2360   19.1390 C.3   118  ARG118      0.2205
     76  NE       -11.8310  -17.7770   19.6050 N.pl3 118  ARG118     -0.0865
     77  CZ       -11.9670  -16.8260   20.5060 C.cat 118  ARG118      0.5346
     78  NH1      -10.8900  -16.2610   21.0150 N.pl3 118  ARG118      0.1354
     79  NH2      -13.1710  -16.4360   20.8910 N.pl3 118  ARG118      0.1354
     80  N         -7.0800  -21.5170   16.0280 N.am  119  LEU119     -0.1980
     81  CA        -5.9640  -21.6740   15.1130 C.3   119  LEU119      0.1596
     82  C         -6.3330  -22.6240   13.9670 C.2   119  LEU119      0.2287
     83  O         -5.9380  -22.3980   12.8260 O.2   119  LEU119     -0.2864
     84  CB        -4.6980  -22.1380   15.8320 C.3   119  LEU119      0.0297
     85  CG        -3.9370  -21.0580   16.6030 C.3   119  LEU119      0.0022
     86  CD1       -2.8090  -21.7000   17.3670 C.3   119  LEU119      0.0001
     87  CD2       -3.4100  -19.9590   15.6750 C.3   119  LEU119      0.0001
     88  N         -8.4400  -21.6530   10.3120 N.3   122  ARG122     -0.1245
     89  CA        -7.8400  -20.9660    9.1660 C.3   122  ARG122      0.1563
     90  C         -7.6250  -21.9100    7.9710 C.2   122  ARG122      0.2260
     91  O         -6.7930  -22.8280    8.0260 O.2   122  ARG122     -0.2867
     92  CB        -6.4780  -20.3730    9.5480 C.3   122  ARG122      0.0307
     93  CG        -6.3980  -19.6230   10.8810 C.3   122  ARG122      0.0489
     94  CD        -4.9550  -19.4040   11.3320 C.3   122  ARG122      0.2205
     95  NE        -4.7730  -18.2460   12.2060 N.pl3 122  ARG122     -0.0865
     96  CZ        -3.5780  -17.7750   12.5930 C.cat 122  ARG122      0.5346
     97  NH1       -2.4610  -18.3730   12.1810 N.pl3 122  ARG122      0.1354
     98  NH2       -3.5010  -16.7100   13.3940 N.pl3 122  ARG122      0.1354
     99  N        -11.0440  -14.2160   26.5160 N.3   154  ILE154     -0.1245
    100  CA       -11.1410  -14.4510   25.0830 C.3   154  ILE154      0.1561
    101  C        -12.2890  -15.3460   24.6020 C.2   154  ILE154      0.2260
    102  O        -12.6100  -15.3240   23.4150 O.2   154  ILE154     -0.2867
    103  CB        -9.8130  -14.9350   24.4550 C.3   154  ILE154      0.0252
    104  CG1       -9.4540  -16.3260   24.9260 C.3   154  ILE154      0.0019
    105  CG2       -8.6570  -13.9690   24.7160 C.3   154  ILE154      0.0019
    106  CD1       -8.2370  -16.8430   24.1980 C.3   154  ILE154      0.0001
    107  N        -15.0860  -15.4600   23.6120 N.3   156  GLN156     -0.1231
    108  CA       -16.0380  -14.4260   23.2600 C.3   156  GLN156      0.1683
    109  C        -15.7680  -14.1650   21.7850 C.2   156  GLN156      0.2434
    110  O        -14.6610  -14.3990   21.3160 O.2   156  GLN156     -0.2733
    111  CB       -15.7050  -13.1850   24.1150 C.3   156  GLN156      0.0380
    112  CG       -16.7830  -12.1160   24.2880 C.3   156  GLN156      0.0905
    113  CD       -16.4650  -11.1620   25.4360 C.2   156  GLN156      0.2608
    114  OE1      -17.2350  -10.2450   25.7320 O.2   156  GLN156     -0.2717
    115  NE2      -15.3380  -11.3860   26.0870 N.am  156  GLN156     -0.0878
    116  N        -16.7750  -13.7640   21.0210 N.am  157  PRO157     -0.2718
    117  CA       -16.5400  -13.4080   19.6170 C.3   157  PRO157      0.1535
    118  C        -15.5960  -12.1870   19.5380 C.2   157  PRO157      0.2598
    119  O        -15.5070  -11.4300   20.4910 O.2   157  PRO157     -0.2715
    120  CB       -17.9450  -13.0220   19.0930 C.3   157  PRO157      0.0310
    121  CG       -18.9370  -13.5290   20.1090 C.3   157  PRO157      0.0237
    122  CD       -18.1890  -13.6230   21.4250 C.3   157  PRO157      0.0939
    123  N        -14.9250  -11.9910   18.4120 N.am  158  LEU158     -0.1978
    124  CA       -13.9780  -10.8800   18.2830 C.3   158  LEU158      0.1596
    125  C        -14.4760   -9.5430   18.8400 C.2   158  LEU158      0.2287
    126  O        -13.7520   -8.8570   19.5700 O.2   158  LEU158     -0.2864
    127  CB       -13.5350  -10.7020   16.8340 C.3   158  LEU158      0.0297
    128  CG       -12.6590   -9.4610   16.6330 C.3   158  LEU158      0.0022
    129  CD1      -11.3760   -9.5880   17.4440 C.3   158  LEU158      0.0001
    130  CD2      -12.3310   -9.2650   15.1740 C.3   158  LEU158      0.0001
    131  N        -14.1800   -9.3680   22.9050 N.3   161  VAL161     -0.1245
    132  CA       -12.8330   -9.1500   23.4170 C.3   161  VAL161      0.1561
    133  C        -12.3590   -7.7380   23.1210 C.2   161  VAL161      0.2260
    134  O        -11.6980   -7.1320   23.9480 O.2   161  VAL161     -0.2867
    135  CB       -11.8320  -10.1810   22.8410 C.3   161  VAL161      0.0252
    136  CG1      -10.4250   -9.8750   23.3280 C.3   161  VAL161      0.0019
    137  CG2      -12.2470  -11.6080   23.2060 C.3   161  VAL161      0.0019
@<TRIPOS>BOND
     1    90    91    2
     2    90    89    1
     3    89    92    1
     4    89    88    1
     5    92    93    1
     6    93    94    1
     7    94    95    1
     8    97    96    1
     9    95    96    2
    10    96    98    1
    11    83    82    2
    12    82    81    1
    13    72    71    2
    14    51    50    2
    15    81    84    1
    16    81    80    1
    17   130   128    1
    18    52    53    1
    19    52    49    1
    20    50    49    1
    21    34    35    1
    22    34    31    1
    23    55    53   ar
    24    71    80   am
    25    71    70    1
    26    87    85    1
    27    40    37    1
    28    37    36    1
    29    37    38    1
    30    33    32    2
    31    84    85    1
    32    53    54   ar
    33    32    36   am
    34    32    31    1
    35    49    48    1
    36    39    38    2
    37    31    30    1
    38    70    69    1
    39    70    73    1
    40    85    86    1
    41   128   127    1
    42   128   129    1
    43    38    41   am
    44   127   124    1
    45    73    74    1
    46    30    23   am
    47     6     5    1
    48    74    75    1
    49    41    42    1
    50   124   123    1
    51   124   125    1
    52   123   118   am
    53     8     7    1
    54     8     9    1
    55    44    43    2
    56    62    60    1
    57   125   126    2
    58    23    24    2
    59    23    22    1
    60     7     3   am
    61    43    42    1
    62    42    45    1
    63    61    60    1
    64   120   117    1
    65   120   121    1
    66    60    57    1
    67    20    19    2
    68    75    76    1
    69     5     2    1
    70    18    19    1
    71    18    17    1
    72    19    21   am
    73    10     9    2
    74   118   117    1
    75   118   119    2
    76     9    11   am
    77    76    77    2
    78   117   116    1
    79     3     2    1
    80     3     4    2
    81    21    22    1
    82     2     1    1
    83    17    13   am
    84    22    25    1
    85   121   122    1
    86    59    58    2
    87    45    47    1
    88    45    46    1
    89    25    26    1
    90    11    12    1
    91    57    56    1
    92    57    58    1
    93    77    79    1
    94    77    78    1
    95    29    28    1
    96    28    27    1
    97   116   122    1
    98   116   109   am
    99    13    12    1
   100    13    14    2
   101   110   109    2
   102    12    15    1
   103    26    27    1
   104   109   108    1
   105    16    15    1
   106    63    64    1
   107   135   137    1
   108   135   136    1
   109   135   132    1
   110   131   132    1
   111    67    68    1
   112    67    64    1
   113   133   132    1
   114   133   134    2
   115   108   107    1
   116   108   111    1
   117   102   101    2
   118    64    65    1
   119   111   112    1
   120   106   104    1
   121   112   113    1
   122   103   105    1
   123   103   104    1
   124   103   100    1
   125   101   100    1
   126    65    66    2
   127   100    99    1
   128   113   114    2
   129   113   115   am
