@<TRIPOS>MOLECULE
tmp/1ko6A00.pdb
 169 165 0 0 0
SMALL
GASTEIGER

@<TRIPOS>ATOM
      1  N         67.5350   24.1410   25.8270 N.3    69  LYS69      -0.1231
      2  CA        66.4300   25.0690   25.6500 C.3    69  LYS69       0.1693
      3  C         65.5050   25.0120   26.8280 C.2    69  LYS69       0.2592
      4  O         64.3010   24.9890   26.6560 O.2    69  LYS69      -0.2718
      5  CB        65.6150   24.7270   24.3940 C.3    69  LYS69       0.0285
      6  CG        66.4310   24.5940   23.1030 C.3    69  LYS69       0.0035
      7  CD        65.5580   24.6940   21.8230 C.3    69  LYS69       0.0206
      8  CE        64.4790   23.6050   21.7510 C.3    69  LYS69       0.1093
      9  NZ        63.6540   23.6900   20.5000 N.3    69  LYS69      -0.1314
     10  N         66.0500   24.9910   28.0300 N.am   70  GLU70      -0.1966
     11  CA        65.1880   24.9190   29.1940 C.3    70  GLU70       0.1733
     12  C         65.9540   24.7720   30.4750 C.2    70  GLU70       0.2616
     13  O         66.6760   23.7990   30.6520 O.2    70  GLU70      -0.2715
     14  CB        64.2490   23.7260   29.0730 C.3    70  GLU70       0.0429
     15  CG        63.5590   23.3460   30.3680 C.3    70  GLU70       0.1163
     16  CD        62.9140   21.9710   30.3010 C.2    70  GLU70       0.3649
     17  OE1       63.6510   20.9970   30.0360 O.co2  70  GLU70      -0.2457
     18  OE2       61.6790   21.8670   30.5120 O.co2  70  GLU70      -0.2457
     19  N         65.7850   25.7310   31.3750 N.am   71  VAL71      -0.1963
     20  CA        66.4380   25.6730   32.6730 C.3    71  VAL71       0.1727
     21  C         65.3630   25.6190   33.7530 C.2    71  VAL71       0.2616
     22  O         64.2690   26.1550   33.5790 O.2    71  VAL71      -0.2715
     23  CB        67.3050   26.9060   32.9230 C.3    71  VAL71       0.0290
     24  CG1       66.4320   28.1450   33.0140 C.3    71  VAL71       0.0023
     25  CG2       68.0680   26.7340   34.1930 C.3    71  VAL71       0.0023
     26  N         65.6660   24.9650   34.8620 N.am   72  VAL72      -0.1963
     27  CA        64.7100   24.8800   35.9560 C.3    72  VAL72       0.1727
     28  C         65.4310   24.9220   37.2890 C.2    72  VAL72       0.2616
     29  O         66.3620   24.1640   37.5160 O.2    72  VAL72      -0.2715
     30  CB        63.8770   23.5960   35.8760 C.3    72  VAL72       0.0290
     31  CG1       64.7800   22.4060   35.7000 C.3    72  VAL72       0.0023
     32  CG2       63.0620   23.4320   37.1380 C.3    72  VAL72       0.0023
     33  N         65.0140   25.8220   38.1670 N.am   73  VAL73      -0.1977
     34  CA        65.6500   25.9310   39.4740 C.3    73  VAL73       0.1596
     35  C         64.6290   25.5740   40.5240 C.2    73  VAL73       0.2287
     36  O         63.5000   26.0580   40.4960 O.2    73  VAL73      -0.2864
     37  CB        66.1740   27.3350   39.7290 C.3    73  VAL73       0.0276
     38  CG1       66.8710   27.3780   41.0560 C.3    73  VAL73       0.0022
     39  CG2       67.1310   27.7270   38.6270 C.3    73  VAL73       0.0022
     40  N         70.8470   30.0390   27.8300 N.3    95  LEU95      -0.1245
     41  CA        70.6120   28.7170   27.2580 C.3    95  LEU95       0.1561
     42  C         71.3310   28.4890   25.9420 C.2    95  LEU95       0.2260
     43  O         70.9380   29.0320   24.9180 O.2    95  LEU95      -0.2867
     44  CB        69.1100   28.5160   27.0380 C.3    95  LEU95       0.0270
     45  CG        68.2000   28.5200   28.2680 C.3    95  LEU95       0.0019
     46  CD1       66.7620   28.4350   27.8130 C.3    95  LEU95       0.0001
     47  CD2       68.5350   27.3560   29.1870 C.3    95  LEU95       0.0001
     48  N         70.6320   26.6060   21.4030 N.3    98  VAL98      -0.1245
     49  CA        69.2560   26.8280   20.9880 C.3    98  VAL98       0.1561
     50  C         69.1930   27.2520   19.5300 C.2    98  VAL98       0.2260
     51  O         69.7800   28.2570   19.1330 O.2    98  VAL98      -0.2867
     52  CB        68.5520   27.8810   21.8380 C.3    98  VAL98       0.0252
     53  CG1       67.1720   28.1250   21.2980 C.3    98  VAL98       0.0019
     54  CG2       68.4470   27.4000   23.2560 C.3    98  VAL98       0.0019
     55  N         64.2950   34.4310   14.3010 N.3   120  TYR120     -0.1241
     56  CA        64.2530   33.5050   15.4180 C.3   120  TYR120      0.1605
     57  C         64.3150   34.3000   16.7040 C.2   120  TYR120      0.2264
     58  O         63.5080   34.0710   17.6040 O.2   120  TYR120     -0.2867
     59  CB        65.4240   32.5350   15.3200 C.3   120  TYR120      0.0534
     60  CG        65.3760   31.3660   16.2820 C.ar  120  TYR120     -0.0201
     61  CD1       64.1840   30.6920   16.5350 C.ar  120  TYR120     -0.0009
     62  CD2       66.5470   30.8750   16.8710 C.ar  120  TYR120     -0.0009
     63  CE1       64.1560   29.5530   17.3390 C.ar  120  TYR120      0.0417
     64  CE2       66.5300   29.7300   17.6770 C.ar  120  TYR120      0.0417
     65  CZ        65.3320   29.0710   17.8980 C.ar  120  TYR120      0.1957
     66  OH        65.3240   27.8870   18.6060 O.3   120  TYR120     -0.2866
     67  N         61.0180   35.3770   17.9090 N.3   123  ARG123     -0.1231
     68  CA        60.2510   34.3730   18.6350 C.3   123  ARG123      0.1694
     69  C         60.8270   34.1460   20.0290 C.2   123  ARG123      0.2591
     70  O         60.1230   34.2150   21.0270 O.2   123  ARG123     -0.2718
     71  CB        60.2350   33.0540   17.8590 C.3   123  ARG123      0.0321
     72  CG        59.3760   31.9710   18.4930 C.3   123  ARG123      0.0489
     73  CD        58.9210   30.9520   17.4610 C.3   123  ARG123      0.2205
     74  NE        58.0010   29.9720   18.0290 N.pl3 123  ARG123     -0.0865
     75  CZ        57.4560   28.9740   17.3400 C.cat 123  ARG123      0.5346
     76  NH1       57.7390   28.8210   16.0550 N.pl3 123  ARG123      0.1354
     77  NH2       56.6290   28.1280   17.9380 N.pl3 123  ARG123      0.1354
     78  N         62.1400   33.9350   20.0600 N.am  124  LEU124     -0.1980
     79  CA        62.7930   33.7360   21.3320 C.3   124  LEU124      0.1596
     80  C         62.3780   34.8600   22.2800 C.2   124  LEU124      0.2287
     81  O         61.6880   34.6200   23.2690 O.2   124  LEU124     -0.2864
     82  CB        64.3080   33.6930   21.1350 C.3   124  LEU124      0.0297
     83  CG        64.9470   32.3330   21.4630 C.3   124  LEU124      0.0022
     84  CD1       64.2360   31.1970   20.7520 C.3   124  LEU124      0.0001
     85  CD2       66.3940   32.3520   21.0510 C.3   124  LEU124      0.0001
     86  N         58.7490   34.6200   23.4010 N.3   127  VAL127     -0.1245
     87  CA        58.5520   33.6650   24.4690 C.3   127  VAL127      0.1561
     88  C         59.0020   34.2890   25.7810 C.2   127  VAL127      0.2260
     89  O         58.1800   34.5190   26.6640 O.2   127  VAL127     -0.2867
     90  CB        59.3680   32.3820   24.2090 C.3   127  VAL127      0.0252
     91  CG1       59.2070   31.4200   25.3610 C.3   127  VAL127      0.0019
     92  CG2       58.8980   31.7270   22.9240 C.3   127  VAL127      0.0019
     93  N         56.9210   34.3740   29.2280 N.3   131  GLN131     -0.1231
     94  CA        57.3220   33.7040   30.4630 C.3   131  GLN131      0.1698
     95  C         57.5920   34.6960   31.5920 C.2   131  GLN131      0.2593
     96  O         57.9400   34.2940   32.7020 O.2   131  GLN131     -0.2718
     97  CB        58.6090   32.9020   30.2520 C.3   131  GLN131      0.0381
     98  CG        58.5450   31.7350   29.2970 C.3   131  GLN131      0.0905
     99  CD        59.8770   30.9980   29.2410 C.2   131  GLN131      0.2608
    100  OE1       60.6160   30.9420   30.2360 O.2   131  GLN131     -0.2717
    101  NE2       60.1840   30.4140   28.0900 N.am  131  GLN131     -0.0878
    102  N         57.4650   35.9840   31.3150 N.am  132  GLY132     -0.1942
    103  CA        57.7390   36.9530   32.3510 C.3   132  GLY132      0.2014
    104  C         59.2330   37.1950   32.5350 C.2   132  GLY132      0.2638
    105  O         59.6800   37.5630   33.6210 O.2   132  GLY132     -0.2714
    106  N         60.0160   36.9900   31.4810 N.am  133  ALA133     -0.1977
    107  CA        61.4570   37.2240   31.5540 C.3   133  ALA133      0.1597
    108  C         61.8340   38.4300   30.6780 C.2   133  ALA133      0.2287
    109  O         61.0360   38.8670   29.8470 O.2   133  ALA133     -0.2864
    110  CB        62.2000   35.9850   31.0860 C.3   133  ALA133      0.0319
    111  N         70.6690   31.7300   23.9490 N.3   145  TRP145     -0.1241
    112  CA        69.4860   32.5360   24.1640 C.3   145  TRP145      0.1605
    113  C         69.5660   33.0360   25.5850 C.2   145  TRP145      0.2264
    114  O         69.1960   32.3300   26.5090 O.2   145  TRP145     -0.2867
    115  CB        68.2550   31.6590   23.9690 C.3   145  TRP145      0.0550
    116  CG        66.9860   32.1970   24.5240 C.ar  145  TRP145      0.0003
    117  CD1       66.6970   33.4900   24.8070 C.ar  145  TRP145      0.0946
    118  CD2       65.7910   31.4550   24.7760 C.ar  145  TRP145      0.0152
    119  NE1       65.3900   33.6090   25.2140 N.ar  145  TRP145     -0.2442
    120  CE2       64.8130   32.3720   25.2040 C.ar  145  TRP145      0.0810
    121  CE3       65.4520   30.1010   24.6770 C.ar  145  TRP145      0.0012
    122  CZ2       63.5180   31.9840   25.5350 C.ar  145  TRP145      0.0191
    123  CZ3       64.1590   29.7100   25.0070 C.ar  145  TRP145      0.0001
    124  CH2       63.2080   30.6520   25.4320 C.ar  145  TRP145      0.0015
    125  N         68.5340   35.4950   28.7090 N.3   147  PHE147     -0.1241
    126  CA        67.4100   36.2750   29.1940 C.3   147  PHE147      0.1605
    127  C         67.4430   36.3640   30.7090 C.2   147  PHE147      0.2264
    128  O         68.0090   35.4880   31.3610 O.2   147  PHE147     -0.2867
    129  CB        66.0900   35.6650   28.7110 C.3   147  PHE147      0.0534
    130  CG        65.7970   34.2900   29.2560 C.ar  147  PHE147     -0.0203
    131  CD1       65.3860   34.1150   30.5730 C.ar  147  PHE147     -0.0042
    132  CD2       65.8480   33.1740   28.4220 C.ar  147  PHE147     -0.0042
    133  CE1       65.0210   32.8510   31.0510 C.ar  147  PHE147     -0.0003
    134  CE2       65.4860   31.9150   28.8890 C.ar  147  PHE147     -0.0003
    135  CZ        65.0700   31.7550   30.2070 C.ar  147  PHE147     -0.0000
    136  N         65.5380   36.6710   34.4970 N.3   149  VAL149     -0.1231
    137  CA        64.3480   36.2760   35.2290 C.3   149  VAL149      0.1692
    138  C         64.4470   37.0550   36.5250 C.2   149  VAL149      0.2593
    139  O         65.5550   37.3830   36.9650 O.2   149  VAL149     -0.2718
    140  CB        64.3380   34.7650   35.5640 C.3   149  VAL149      0.0266
    141  CG1       64.3670   33.9530   34.2880 C.3   149  VAL149      0.0020
    142  CG2       65.5350   34.4160   36.4430 C.3   149  VAL149      0.0020
    143  N         63.2960   37.3590   37.1180 N.am  150  SER150     -0.1938
    144  CA        63.2240   38.0990   38.3780 C.3   150  SER150      0.2055
    145  C         63.5110   37.1250   39.5130 C.2   150  SER150      0.2643
    146  O         64.2670   37.4130   40.4290 O.2   150  SER150     -0.2714
    147  CB        61.8260   38.6740   38.5490 C.3   150  SER150      0.2130
    148  OG        60.8730   37.6210   38.6070 O.3   150  SER150     -0.2179
    149  N         62.8760   35.9660   39.4300 N.am  151  HIS151     -0.1959
    150  CA        63.0470   34.9020   40.4000 C.3   151  HIS151      0.1787
    151  C         62.7940   33.6190   39.6080 C.2   151  HIS151      0.2620
    152  O         62.7040   33.6590   38.3790 O.2   151  HIS151     -0.2715
    153  CB        62.0100   35.0260   41.4930 C.3   151  HIS151      0.0785
    154  CG        60.6120   34.8810   40.9910 C.ar  151  HIS151      0.0821
    155  ND1       59.7730   35.9600   40.8080 N.ar  151  HIS151     -0.2267
    156  CD2       59.9230   33.7890   40.5810 C.ar  151  HIS151      0.1154
    157  CE1       58.6260   35.5380   40.3060 C.ar  151  HIS151      0.1986
    158  NE2       58.6920   34.2250   40.1580 N.ar  151  HIS151     -0.2212
    159  N         62.6710   32.4900   40.2980 N.am  152  PHE152     -0.1974
    160  CA        62.4120   31.2230   39.6190 C.3   152  PHE152      0.1639
    161  C         61.1220   30.5770   40.1250 C.2   152  PHE152      0.2290
    162  O         60.6440   30.9630   41.2250 O.2   152  PHE152     -0.2864
    163  CB        63.5800   30.2550   39.8290 C.3   152  PHE152      0.0560
    164  CG        64.7350   30.4890   38.9070 C.ar  152  PHE152     -0.0200
    165  CD1       64.6290   30.1960   37.5590 C.ar  152  PHE152     -0.0042
    166  CD2       65.9260   31.0140   39.3810 C.ar  152  PHE152     -0.0042
    167  CE1       65.6900   30.4230   36.6890 C.ar  152  PHE152     -0.0003
    168  CE2       66.9950   31.2440   38.5180 C.ar  152  PHE152     -0.0003
    169  CZ        66.8720   30.9470   37.1670 C.ar  152  PHE152     -0.0000
@<TRIPOS>BOND
     1    55    56    1
     2    59    56    1
     3    59    60    1
     4    56    57    1
     5    76    75    1
     6    60    61   ar
     7    60    62   ar
     8    61    63   ar
     9    57    58    2
    10    62    64   ar
    11    63    65   ar
    12    75    77    1
    13    75    74    2
    14    73    74    1
    15    73    72    1
    16    64    65   ar
    17    71    72    1
    18    71    68    1
    19    65    66    1
    20    67    68    1
    21    68    69    1
    22    51    50    2
    23    50    49    1
    24    69    78   am
    25    69    70    2
    26    78    79    1
    27     9     8    1
    28    84    83    1
    29    49    48    1
    30    49    52    1
    31    85    83    1
    32    82    79    1
    33    82    83    1
    34    53    52    1
    35    79    80    1
    36     8     7    1
    37     7     6    1
    38    52    54    1
    39    80    81    2
    40    92    90    1
    41     6     5    1
    42    86    87    1
    43   111   112    1
    44   115   112    1
    45   115   116    1
    46   112   113    1
    47    90    87    1
    48    90    91    1
    49     5     2    1
    50    87    88    1
    51   116   118   ar
    52   116   117   ar
    53   121   118   ar
    54   121   123   ar
    55   118   120   ar
    56   117   119   ar
    57    43    42    2
    58   123   124   ar
    59   120   119   ar
    60   120   122   ar
    61   124   122   ar
    62   113   114    2
    63     2     1    1
    64     2     3    1
    65    88    89    2
    66    42    41    1
    67     4     3    2
    68     3    10   am
    69    44    41    1
    70    44    45    1
    71    41    40    1
    72    46    45    1
    73    10    11    1
    74   101    99   am
    75    45    47    1
    76   132   134   ar
    77   132   130   ar
    78   125   126    1
    79   129   126    1
    80   129   130    1
    81   134   135   ar
    82    14    11    1
    83    14    15    1
    84   126   127    1
    85    11    12    1
    86    93    94    1
    87    99    98    1
    88    99   100    2
    89   130   131   ar
    90    98    97    1
    91   109   108    2
    92    17    16   ar
    93   135   133   ar
    94    97    94    1
    95    16    15    1
    96    16    18   ar
    97    94    95    1
    98    12    13    2
    99    12    19   am
   100   131   133   ar
   101   108   107    1
   102   127   128    2
   103   110   107    1
   104   102    95   am
   105   102   103    1
   106    19    20    1
   107   106   107    1
   108   106   104   am
   109    95    96    2
   110   103   104    1
   111   104   105    2
   112    20    23    1
   113    20    21    1
   114    23    24    1
   115    23    25    1
   116    22    21    2
   117    21    26   am
   118   141   140    1
   119   136   137    1
   120    26    27    1
   121   137   140    1
   122   137   138    1
   123   140   142    1
   124    31    30    1
   125    30    27    1
   126    30    32    1
   127    27    28    1
   128   138   139    2
   129   138   143   am
   130   167   169   ar
   131   167   165   ar
   132   143   144    1
   133   169   168   ar
   134    28    29    2
   135    28    33   am
   136   165   164   ar
   137    33    34    1
   138   144   147    1
   139   144   145    1
   140   152   151    2
   141   168   166   ar
   142   147   148    1
   143    39    37    1
   144   164   166   ar
   145   164   163    1
   146   149   145   am
   147   149   150    1
   148    34    37    1
   149    34    35    1
   150   145   146    2
   151   151   159   am
   152   151   150    1
   153   160   163    1
   154   160   161    1
   155   160   159    1
   156    37    38    1
   157   161   162    2
   158   158   157   ar
   159   158   156   ar
   160   157   155   ar
   161   150   153    1
   162    36    35    2
   163   156   154   ar
   164   155   154   ar
   165   154   153    1
