@<TRIPOS>MOLECULE
tmp/1ko8B00.pdb
 106 102 0 0 0
SMALL
GASTEIGER

@<TRIPOS>ATOM
      1  N          6.5260   17.2010    7.9700 N.3    15  SER15      -0.1202
      2  CA         5.5090   17.2740    8.9950 C.3    15  SER15       0.2020
      3  C          4.3550   18.1080    8.5020 C.2    15  SER15       0.2619
      4  O          4.5520   19.1860    7.9430 O.2    15  SER15      -0.2717
      5  CB         6.0900   17.9300   10.2190 C.3    15  SER15       0.2103
      6  OG         5.4350   17.4660   11.3640 O.3    15  SER15      -0.2182
      7  N          3.1440   17.6240    8.6840 N.am   16  GLY16      -0.1942
      8  CA         1.9940   18.3630    8.2000 C.3    16  GLY16       0.2014
      9  C          1.4120   17.9000    6.8900 C.2    16  GLY16       0.2640
     10  O          0.3090   18.2580    6.5350 O.2    16  GLY16      -0.2714
     11  N          2.1420   17.0720    6.1630 N.am   17  SER17      -0.1935
     12  CA         1.6180   16.5730    4.9270 C.3    17  SER17       0.2055
     13  C          0.5220   15.5410    5.1460 C.2    17  SER17       0.2644
     14  O         -0.1340   15.1500    4.1940 O.2    17  SER17      -0.2714
     15  CB         2.7340   16.0000    4.0910 C.3    17  SER17       0.2130
     16  OG         3.4180   15.0240    4.8300 O.3    17  SER17      -0.2179
     17  N          0.3190   15.0930    6.3790 N.am   18  GLY18      -0.1939
     18  CA        -0.7440   14.1430    6.6570 C.3    18  GLY18       0.2014
     19  C         -0.4160   12.6560    6.5270 C.2    18  GLY18       0.2639
     20  O         -1.3270   11.8040    6.4850 O.2    18  GLY18      -0.2714
     21  N          0.8740   12.3370    6.5250 N.am   19  LYS19      -0.1963
     22  CA         1.3180   10.9700    6.3500 C.3    19  LYS19       0.1728
     23  C          0.5220    9.9430    7.1290 C.2    19  LYS19       0.2616
     24  O         -0.0650    9.0200    6.5560 O.2    19  LYS19      -0.2715
     25  CB         2.8090   10.8680    6.6800 C.3    19  LYS19       0.0311
     26  CG         3.6660   11.7240    5.7390 C.3    19  LYS19       0.0038
     27  CD         5.1420   11.6540    6.0550 C.3    19  LYS19       0.0206
     28  CE         5.4740   12.3890    7.3310 C.3    19  LYS19       0.1093
     29  NZ         4.4570   13.4210    7.7730 N.3    19  LYS19      -0.1314
     30  N          0.4970   10.1100    8.4410 N.am   20  SER20      -0.1950
     31  CA        -0.1460    9.1690    9.3160 C.3    20  SER20       0.1924
     32  C         -1.6410    9.0720    9.0450 C.2    20  SER20       0.2314
     33  O         -2.2260    8.0290    9.2820 O.2    20  SER20      -0.2863
     34  CB         0.0930    9.5640   10.7670 C.3    20  SER20       0.2116
     35  OG         1.4830    9.5380   11.0770 O.3    20  SER20      -0.2180
     36  N          3.7090    3.5370   12.1360 N.3    36  ASP36      -0.1239
     37  CA         4.0770    4.9420   12.2000 C.3    36  ASP36       0.1674
     38  C          5.4530    4.9080   12.7640 C.2    36  ASP36       0.2266
     39  O          5.6220    4.5710   13.9060 O.2    36  ASP36      -0.2867
     40  CB         3.1920    5.7410   13.1360 C.3    36  ASP36       0.1410
     41  CG         3.3830    7.2550   12.9680 C.2    36  ASP36       0.3668
     42  OD1        4.5380    7.7060   12.7710 O.co2  36  ASP36      -0.2456
     43  OD2        2.4270    8.0780   12.9980 O.co2  36  ASP36      -0.2456
     44  N          7.4110    7.0300   13.8750 N.3    38  ASP38      -0.1239
     45  CA         7.7790    7.9130   14.9560 C.3    38  ASP38       0.1674
     46  C          7.8080    7.1760   16.2770 C.2    38  ASP38       0.2266
     47  O          8.5440    7.5590   17.1900 O.2    38  ASP38      -0.2867
     48  CB         6.8670    9.1220   15.0050 C.3    38  ASP38       0.1410
     49  CG         7.2280   10.1120   13.9390 C.2    38  ASP38       0.3668
     50  OD1        8.2070    9.8110   13.2150 O.co2  38  ASP38      -0.2456
     51  OD2        6.6360   11.2010   13.7640 O.co2  38  ASP38      -0.2456
     52  N         -3.4780   22.6830    6.4530 N.3   119  LEU119     -0.1245
     53  CA        -3.5770   22.4200    7.8720 C.3   119  LEU119      0.1561
     54  C         -4.9410   22.8870    8.3820 C.2   119  LEU119      0.2260
     55  O         -5.7390   22.0690    8.8540 O.2   119  LEU119     -0.2867
     56  CB        -2.4030   23.0570    8.6160 C.3   119  LEU119      0.0270
     57  CG        -1.1470   22.2100    8.3570 C.3   119  LEU119      0.0019
     58  CD1        0.1420   22.9110    8.7290 C.3   119  LEU119      0.0001
     59  CD2       -1.2590   20.8670    9.0840 C.3   119  LEU119      0.0001
     60  N         -3.1990   25.6360   17.2640 N.3   122  PHE122     -0.1227
     61  CA        -2.7370   26.5660   16.2070 C.3   122  PHE122      0.1736
     62  C         -1.5950   26.1870   15.2100 C.2   122  PHE122      0.2595
     63  O         -0.6880   25.4040   15.5000 O.2   122  PHE122     -0.2718
     64  CB        -2.4900   27.9670   16.7370 C.3   122  PHE122      0.0547
     65  CG        -2.9960   29.0350   15.8060 C.ar  122  PHE122     -0.0202
     66  CD1       -4.3010   28.9920   15.3480 C.ar  122  PHE122     -0.0042
     67  CD2       -2.1770   30.0630   15.3770 C.ar  122  PHE122     -0.0042
     68  CE1       -4.7910   29.9490   14.5100 C.ar  122  PHE122     -0.0003
     69  CE2       -2.6680   31.0420   14.5140 C.ar  122  PHE122     -0.0003
     70  CZ        -3.9770   30.9770   14.0850 C.ar  122  PHE122     -0.0000
     71  N         -1.6580   26.8190   14.0370 N.am  123  PHE123     -0.1962
     72  CA        -0.7040   26.6140   12.9540 C.3   123  PHE123      0.1771
     73  C          0.5950   27.3750   13.1820 C.2   123  PHE123      0.2619
     74  O          0.5720   28.5790   13.4580 O.2   123  PHE123     -0.2715
     75  CB        -1.2970   27.0660   11.6200 C.3   123  PHE123      0.0574
     76  CG        -0.2630   27.2200   10.5390 C.ar  123  PHE123     -0.0200
     77  CD1        0.3110   26.1120    9.9580 C.ar  123  PHE123     -0.0042
     78  CD2        0.1710   28.4690   10.1440 C.ar  123  PHE123     -0.0042
     79  CE1        1.2820   26.2570    8.9910 C.ar  123  PHE123     -0.0003
     80  CE2        1.1410   28.6080    9.1820 C.ar  123  PHE123     -0.0003
     81  CZ         1.6960   27.5100    8.6090 C.ar  123  PHE123     -0.0000
     82  N          1.7200   26.6890   13.0060 N.am  124  LYS124     -0.1977
     83  CA         3.0260   27.2670   13.3040 C.3   124  LYS124      0.1596
     84  C          3.8320   27.5830   12.0600 C.2   124  LYS124      0.2287
     85  O          4.5280   26.7170   11.5280 O.2   124  LYS124     -0.2864
     86  CB         3.8330   26.3000   14.1690 C.3   124  LYS124      0.0298
     87  CG         3.2160   26.0200   15.5280 C.3   124  LYS124      0.0038
     88  CD         3.6410   24.6730   16.0690 C.3   124  LYS124      0.0206
     89  CE         3.4120   24.6250   17.5620 C.3   124  LYS124      0.1093
     90  NZ         3.6490   26.0040   18.1480 N.3   124  LYS124     -0.1314
     91  N          7.5440   26.1300   11.9580 N.3   127  MET127     -0.1230
     92  CA         7.8390   24.6880   11.9430 C.3   127  MET127      0.1702
     93  C          7.8260   24.1850   10.4790 C.2   127  MET127      0.2592
     94  O          8.8020   23.5780    9.9830 O.2   127  MET127     -0.2718
     95  CB         6.8880   23.9020   12.8500 C.3   127  MET127      0.0401
     96  CG         7.0840   22.3940   12.8090 C.3   127  MET127      0.0596
     97  SD         6.6700   21.5790   14.3820 S.3   127  MET127     -0.1393
     98  CE         6.5510   19.7580   13.9040 C.3   127  MET127      0.0692
     99  N          6.7330   24.4770    9.7840 N.am  128  LEU128     -0.1980
    100  CA         6.6510   24.1690    8.3720 C.3   128  LEU128      0.1596
    101  C          7.8420   24.7620    7.6260 C.2   128  LEU128      0.2287
    102  O          8.4760   24.1060    6.8280 O.2   128  LEU128     -0.2864
    103  CB         5.3830   24.7300    7.7590 C.3   128  LEU128      0.0297
    104  CG         5.3190   24.2060    6.3310 C.3   128  LEU128      0.0022
    105  CD1        5.3030   22.7100    6.4610 C.3   128  LEU128      0.0001
    106  CD2        4.1170   24.7020    5.5170 C.3   128  LEU128      0.0001
@<TRIPOS>BOND
     1    15    16    1
     2    15    12    1
     3    14    13    2
     4    12    13    1
     5    12    11    1
     6    13    17   am
     7   106   104    1
     8    26    27    1
     9    26    25    1
    10    27    28    1
    11    11     9   am
    12   104   105    1
    13   104   103    1
    14    22    21    1
    15    22    25    1
    16    22    23    1
    17    17    18    1
    18    52    53    1
    19    20    19    2
    20    21    19   am
    21    19    18    1
    22    10     9    2
    23    24    23    2
    24   102   101    2
    25     9     8    1
    26    23    30   am
    27    28    29    1
    28   101   100    1
    29   103   100    1
    30    53    54    1
    31    53    56    1
    32     4     3    2
    33     1     2    1
    34     8     7    1
    35    57    56    1
    36    57    58    1
    37    57    59    1
    38   100    99    1
    39    54    55    2
    40    30    31    1
    41     3     7   am
    42     3     2    1
    43    81    79   ar
    44    81    80   ar
    45    79    77   ar
    46     2     5    1
    47    32    33    2
    48    32    31    1
    49    80    78   ar
    50    31    34    1
    51    99    93   am
    52    77    76   ar
    53    94    93    2
    54    78    76   ar
    55     5     6    1
    56    93    92    1
    57    76    75    1
    58    34    35    1
    59    85    84    2
    60    75    72    1
    61    92    91    1
    62    92    95    1
    63    84    83    1
    64    36    37    1
    65    37    38    1
    66    37    40    1
    67    38    39    2
    68    42    41   ar
    69    96    95    1
    70    96    97    1
    71    72    73    1
    72    72    71    1
    73    41    43   ar
    74    41    40    1
    75    82    73   am
    76    82    83    1
    77    73    74    2
    78    50    49   ar
    79    83    86    1
    80    51    49   ar
    81    44    45    1
    82    98    97    1
    83    49    48    1
    84    71    62   am
    85    70    68   ar
    86    70    69   ar
    87    86    87    1
    88    68    66   ar
    89    69    67   ar
    90    45    48    1
    91    45    46    1
    92    62    63    2
    93    62    61    1
    94    66    65   ar
    95    67    65   ar
    96    87    88    1
    97    65    64    1
    98    88    89    1
    99    61    64    1
   100    61    60    1
   101    46    47    2
   102    89    90    1
