@<TRIPOS>MOLECULE
tmp/1kofA00.pdb
 136 129 0 0 0
SMALL
GASTEIGER

@<TRIPOS>ATOM
      1  N         -0.0730  -17.2710   21.3280 N.3    15  SER15      -0.1202
      2  CA        -0.2620  -17.1740   19.8960 C.3    15  SER15       0.2020
      3  C         -1.5340  -17.8990   19.5320 C.2    15  SER15       0.2619
      4  O         -1.6130  -19.0900   19.7070 O.2    15  SER15      -0.2717
      5  CB         0.8530  -17.8320   19.1660 C.3    15  SER15       0.2103
      6  OG         0.7820  -17.4000   17.8400 O.3    15  SER15      -0.2182
      7  N         -2.5410  -17.1650   19.0780 N.am   16  GLY16      -0.1942
      8  CA        -3.8110  -17.7270   18.7030 C.3    16  GLY16       0.2014
      9  C         -4.9540  -17.0190   19.3840 C.2    16  GLY16       0.2640
     10  O         -6.0960  -17.1170   18.9090 O.2    16  GLY16      -0.2714
     11  N         -4.6580  -16.3230   20.4900 N.am   17  SER17      -0.1935
     12  CA        -5.6610  -15.6550   21.3070 C.3    17  SER17       0.2055
     13  C         -6.2130  -14.3100   20.8050 C.2    17  SER17       0.2644
     14  O         -6.9720  -13.6410   21.5240 O.2    17  SER17      -0.2714
     15  CB        -5.1200  -15.4740   22.7340 C.3    17  SER17       0.2130
     16  OG        -3.7990  -14.9590   22.7240 O.3    17  SER17      -0.2179
     17  N         -5.8270  -13.8820   19.6110 N.am   18  GLY18      -0.1939
     18  CA        -6.4290  -12.7060   19.0190 C.3    18  GLY18       0.2014
     19  C         -5.6940  -11.4060   19.1940 C.2    18  GLY18       0.2639
     20  O         -6.2750  -10.3530   19.0240 O.2    18  GLY18      -0.2714
     21  N         -4.4010  -11.4660   19.4550 N.am   19  LYS19      -0.1963
     22  CA        -3.6660  -10.2710   19.7730 C.3    19  LYS19       0.1728
     23  C         -3.7130   -9.2470   18.6790 C.2    19  LYS19       0.2617
     24  O         -4.0450   -8.1140   18.9110 O.2    19  LYS19      -0.2715
     25  CB        -2.2220  -10.6020   20.1570 C.3    19  LYS19       0.0311
     26  CG        -2.0950  -11.3440   21.4700 C.3    19  LYS19       0.0038
     27  CD        -0.6740  -11.4190   21.8450 C.3    19  LYS19       0.0206
     28  CE         0.0660  -12.1500   20.8470 C.3    19  LYS19       0.1093
     29  NZ        -0.4850  -13.4950   20.8590 N.3    19  LYS19      -0.1314
     30  N         -3.3880   -9.6350   17.4640 N.am   20  SER20      -0.1936
     31  CA        -3.3080   -8.6440   16.3940 C.3    20  SER20       0.2055
     32  C         -4.6570   -8.1340   15.8600 C.2    20  SER20       0.2643
     33  O         -4.8700   -6.9230   15.6110 O.2    20  SER20      -0.2714
     34  CB        -2.4370   -9.1790   15.2840 C.3    20  SER20       0.2130
     35  OG        -1.0870   -8.7880   15.5030 O.3    20  SER20      -0.2179
     36  N         -5.5750   -9.0710   15.7160 N.am   21  ALA21      -0.1963
     37  CA        -6.8830   -8.7890   15.2080 C.3    21  ALA21       0.1728
     38  C         -7.6000   -7.9420   16.2080 C.2    21  ALA21       0.2616
     39  O         -8.2210   -6.9720   15.8460 O.2    21  ALA21      -0.2715
     40  CB        -7.6290  -10.0840   14.9660 C.3    21  ALA21       0.0334
     41  N         -7.5330   -8.2730   17.4810 N.am   22  VAL22      -0.1977
     42  CA        -8.2090   -7.4460   18.4400 C.3    22  VAL22       0.1596
     43  C         -7.5490   -6.0740   18.5330 C.2    22  VAL22       0.2287
     44  O         -8.2000   -5.0500   18.6240 O.2    22  VAL22      -0.2864
     45  CB        -8.1820   -8.1050   19.7920 C.3    22  VAL22       0.0276
     46  CG1       -8.7550   -7.1750   20.8720 C.3    22  VAL22       0.0022
     47  CG2       -8.9440   -9.3530   19.7340 C.3    22  VAL22       0.0022
     48  N          6.0580   -7.6090   16.8110 N.3    38  ASP38      -0.1239
     49  CA         6.8950   -8.5330   16.0790 C.3    38  ASP38       0.1674
     50  C          7.9960   -7.7400   15.3690 C.2    38  ASP38       0.2266
     51  O          9.1610   -8.1450   15.3010 O.2    38  ASP38      -0.2867
     52  CB         6.0460   -9.2860   15.0570 C.3    38  ASP38       0.1410
     53  CG         5.4820  -10.5880   15.6010 C.2    38  ASP38       0.3668
     54  OD1        5.2170  -10.7310   16.8320 O.co2  38  ASP38      -0.2456
     55  OD2        5.2640  -11.5520   14.8590 O.co2  38  ASP38      -0.2456
     56  N          1.1560   -4.8860   20.7620 N.3    84  VAL84      -0.1245
     57  CA         0.9690   -6.3520   20.6930 C.3    84  VAL84       0.1561
     58  C          2.2790   -7.0520   20.9540 C.2    84  VAL84       0.2260
     59  O          3.3210   -6.7420   20.3430 O.2    84  VAL84      -0.2867
     60  CB         0.5120   -6.9020   19.3250 C.3    84  VAL84       0.0252
     61  CG1        0.4290   -8.4330   19.3940 C.3    84  VAL84       0.0019
     62  CG2       -0.8260   -6.3280   18.9220 C.3    84  VAL84       0.0019
     63  N         -9.7930  -22.1580   17.0570 N.3   118  ARG118     -0.1231
     64  CA        -9.5330  -20.9180   16.3270 C.3   118  ARG118      0.1694
     65  C         -8.3520  -20.9830   15.3480 C.2   118  ARG118      0.2591
     66  O         -8.4940  -20.6740   14.1720 O.2   118  ARG118     -0.2718
     67  CB        -9.3940  -19.7590   17.3080 C.3   118  ARG118      0.0321
     68  CG       -10.7580  -19.2460   17.8080 C.3   118  ARG118      0.0489
     69  CD       -10.5920  -18.0030   18.5650 C.3   118  ARG118      0.2205
     70  NE       -11.7570  -17.5380   19.2740 N.pl3 118  ARG118     -0.0865
     71  CZ       -11.6360  -16.7370   20.3230 C.cat 118  ARG118      0.5346
     72  NH1      -10.4130  -16.3740   20.6840 N.pl3 118  ARG118      0.1354
     73  NH2      -12.6950  -16.3030   21.0020 N.pl3 118  ARG118      0.1354
     74  N         -7.1740  -21.3600   15.8220 N.am  119  LEU119     -0.1980
     75  CA        -6.0680  -21.4580   14.8900 C.3   119  LEU119      0.1596
     76  C         -6.4130  -22.4240   13.7710 C.2   119  LEU119      0.2287
     77  O         -5.9590  -22.2170   12.6550 O.2   119  LEU119     -0.2864
     78  CB        -4.7960  -21.9510   15.5660 C.3   119  LEU119      0.0297
     79  CG        -3.9230  -20.9150   16.2450 C.3   119  LEU119      0.0022
     80  CD1       -3.0720  -21.6130   17.2360 C.3   119  LEU119      0.0001
     81  CD2       -3.0910  -20.1910   15.2410 C.3   119  LEU119      0.0001
     82  N         -9.3090  -22.7910   12.5300 N.3   121  ALA121     -0.1231
     83  CA       -10.3660  -22.1720   11.7270 C.3   121  ALA121      0.1694
     84  C         -9.9510  -21.5960   10.3890 C.2   121  ALA121      0.2591
     85  O        -10.7960  -21.4850    9.5140 O.2   121  ALA121     -0.2718
     86  CB       -11.1340  -21.1050   12.5440 C.3   121  ALA121      0.0304
     87  N         -8.7040  -21.1610   10.2160 N.am  122  ARG122     -0.1980
     88  CA        -8.3340  -20.6610    8.8820 C.3   122  ARG122      0.1597
     89  C         -7.9520  -21.7760    7.8770 C.2   122  ARG122      0.2287
     90  O         -7.2710  -22.7490    8.2020 O.2   122  ARG122     -0.2864
     91  CB        -7.3440  -19.4740    8.8880 C.3   122  ARG122      0.0334
     92  CG        -6.0120  -19.5750    9.6840 C.3   122  ARG122      0.0492
     93  CD        -5.1360  -18.2400    9.6400 C.3   122  ARG122      0.2205
     94  NE        -4.7430  -17.7850    8.2890 N.pl3 122  ARG122     -0.0865
     95  CZ        -3.6590  -17.0330    7.9990 C.cat 122  ARG122      0.5346
     96  NH1       -2.8360  -16.6170    8.9650 N.pl3 122  ARG122      0.1354
     97  NH2       -3.3860  -16.7000    6.7350 N.pl3 122  ARG122      0.1354
     98  N        -11.6930  -14.3010   26.1930 N.3   154  ILE154     -0.1245
     99  CA       -11.8230  -14.4300   24.7520 C.3   154  ILE154      0.1561
    100  C        -12.9220  -15.3970   24.2980 C.2   154  ILE154      0.2260
    101  O        -13.3460  -15.3420   23.1530 O.2   154  ILE154     -0.2867
    102  CB       -10.4870  -14.8020   24.1080 C.3   154  ILE154      0.0252
    103  CG1      -10.2070  -16.2690   24.4030 C.3   154  ILE154      0.0019
    104  CG2       -9.3310  -14.0450   24.6760 C.3   154  ILE154      0.0019
    105  CD1       -8.8110  -16.6930   24.0860 C.3   154  ILE154      0.0001
    106  N        -15.7000  -15.6730   23.4650 N.3   156  GLN156     -0.1231
    107  CA       -16.6820  -14.6210   23.1580 C.3   156  GLN156      0.1683
    108  C        -16.3430  -14.3400   21.6970 C.2   156  GLN156      0.2434
    109  O        -15.2130  -14.5420   21.3420 O.2   156  GLN156     -0.2733
    110  CB       -16.3460  -13.3890   24.0250 C.3   156  GLN156      0.0380
    111  CG       -17.3290  -12.2430   24.0440 C.3   156  GLN156      0.0905
    112  CD       -16.9660  -11.2440   25.0770 C.2   156  GLN156      0.2608
    113  OE1      -17.7060  -10.2990   25.2840 O.2   156  GLN156     -0.2717
    114  NE2      -15.8380  -11.4430   25.7460 N.am  156  GLN156     -0.0878
    115  N        -17.2740  -13.9590   20.8140 N.am  157  PRO157     -0.2718
    116  CA       -16.8980  -13.6580   19.4090 C.3   157  PRO157      0.1535
    117  C        -16.0390  -12.4110   19.2410 C.2   157  PRO157      0.2598
    118  O        -16.1020  -11.4650   20.0420 O.2   157  PRO157     -0.2715
    119  CB       -18.2360  -13.4100   18.6890 C.3   157  PRO157      0.0310
    120  CG       -19.3220  -13.7240   19.6560 C.3   157  PRO157      0.0237
    121  CD       -18.7250  -13.8240   21.0530 C.3   157  PRO157      0.0939
    122  N        -15.2610  -12.3790   18.1650 N.am  158  LEU158     -0.1978
    123  CA       -14.3940  -11.2240   17.9220 C.3   158  LEU158      0.1596
    124  C        -14.8930   -9.8550   18.4480 C.2   158  LEU158      0.2287
    125  O        -14.1590   -9.1340   19.1200 O.2   158  LEU158     -0.2864
    126  CB       -14.0360  -11.1190   16.4480 C.3   158  LEU158      0.0297
    127  CG       -13.0800   -9.9310   16.2670 C.3   158  LEU158      0.0022
    128  CD1      -11.8470  -10.0740   17.1700 C.3   158  LEU158      0.0001
    129  CD2      -12.6980   -9.7660   14.8200 C.3   158  LEU158      0.0001
    130  N        -14.8740   -9.1130   22.3110 N.3   161  VAL161     -0.1245
    131  CA       -13.4890   -9.1400   22.7680 C.3   161  VAL161      0.1561
    132  C        -12.9290   -7.7690   22.4390 C.2   161  VAL161      0.2260
    133  O        -12.1640   -7.1780   23.2050 O.2   161  VAL161     -0.2867
    134  CB       -12.7080  -10.3110   22.0730 C.3   161  VAL161      0.0252
    135  CG1      -11.2680  -10.4110   22.5500 C.3   161  VAL161      0.0019
    136  CG2      -13.4130  -11.6270   22.3150 C.3   161  VAL161      0.0019
@<TRIPOS>BOND
     1    97    95    1
     2    89    90    2
     3    89    88    1
     4    95    94    2
     5    95    96    1
     6    94    93    1
     7    88    91    1
     8    88    87    1
     9    91    92    1
    10    85    84    2
    11    93    92    1
    12    87    84   am
    13    84    83    1
    14    83    82    1
    15    83    86    1
    16    77    76    2
    17    76    75    1
    18    66    65    2
    19   129   127    1
    20    55    53   ar
    21    75    78    1
    22    75    74    1
    23    40    37    1
    24    52    53    1
    25    52    49    1
    26    37    36    1
    27    37    38    1
    28    81    79    1
    29    34    35    1
    30    34    31    1
    31    51    50    2
    32    65    74   am
    33    65    64    1
    34    50    49    1
    35    78    79    1
    36    53    54   ar
    37    33    32    2
    38    36    32   am
    39    39    38    2
    40    32    31    1
    41    49    48    1
    42    38    41   am
    43    79    80    1
    44   127   126    1
    45   127   128    1
    46    64    63    1
    47    64    67    1
    48    31    30    1
    49   126   123    1
    50    67    68    1
    51    30    23   am
    52    41    42    1
    53    68    69    1
    54     6     5    1
    55   123   122    1
    56   123   124    1
    57   122   117   am
    58    42    43    1
    59    42    45    1
    60   124   125    2
    61    43    44    2
    62    69    70    1
    63    23    24    2
    64    23    22    1
    65   119   116    1
    66   119   120    1
    67     8     7    1
    68     8     9    1
    69    10     9    2
    70    62    60    1
    71    18    19    1
    72    18    17    1
    73    20    19    2
    74     7     3   am
    75     5     2    1
    76    19    21   am
    77   117   116    1
    78   117   118    2
    79    70    71    2
    80    60    61    1
    81    60    57    1
    82     9    11   am
    83   116   115    1
    84    21    22    1
    85     3     4    2
    86     3     2    1
    87    17    13   am
    88   120   121    1
    89    47    45    1
    90    22    25    1
    91    45    46    1
    92     2     1    1
    93    25    26    1
    94    71    72    1
    95    71    73    1
    96    59    58    2
    97    11    12    1
    98    57    56    1
    99    57    58    1
   100    13    12    1
   101    13    14    2
   102   115   121    1
   103   115   108   am
   104    28    29    1
   105    28    27    1
   106    12    15    1
   107   109   108    2
   108    26    27    1
   109   108   107    1
   110   134   136    1
   111   134   135    1
   112   134   131    1
   113   130   131    1
   114   132   131    1
   115   132   133    2
   116    16    15    1
   117   101   100    2
   118   107   106    1
   119   107   110    1
   120   110   111    1
   121   111   112    1
   122   105   103    1
   123   102   103    1
   124   102   104    1
   125   102    99    1
   126   100    99    1
   127    99    98    1
   128   112   113    2
   129   112   114   am
