@<TRIPOS>MOLECULE
tmp/1kogI00.pdb
 222 210 0 0 0
SMALL
GASTEIGER

@<TRIPOS>ATOM
      1  N         67.0610   12.7050   24.4810 N.3    72  TYR72      -0.1241
      2  CA        66.8240   11.6840   25.4850 C.3    72  TYR72       0.1605
      3  C         66.5850   10.3620   24.7840 C.2    72  TYR72       0.2264
      4  O         66.6330    9.2930   25.3900 O.2    72  TYR72      -0.2867
      5  CB        65.5850   12.0320   26.3160 C.3    72  TYR72       0.0534
      6  CG        65.6100   11.4980   27.7430 C.ar   72  TYR72      -0.0201
      7  CD1       65.7800   10.1470   28.0140 C.ar   72  TYR72      -0.0009
      8  CD2       65.4800   12.3570   28.8190 C.ar   72  TYR72      -0.0009
      9  CE1       65.8220    9.6790   29.3230 C.ar   72  TYR72       0.0417
     10  CE2       65.5190   11.8950   30.1290 C.ar   72  TYR72       0.0417
     11  CZ        65.6900   10.5650   30.3770 C.ar   72  TYR72       0.1957
     12  OH        65.7310   10.1340   31.6880 O.3    72  TYR72      -0.2866
     13  N         59.7060    8.8320   31.8340 N.3    91  MET91      -0.1245
     14  CA        59.1150    9.6690   32.8650 C.3    91  MET91       0.1570
     15  C         57.6080    9.5670   32.7490 C.2    91  MET91       0.2261
     16  O         57.1220    8.9240   31.8470 O.2    91  MET91      -0.2867
     17  CB        59.5630   11.0890   32.6550 C.3    91  MET91       0.0387
     18  CG        61.0140   11.1610   32.2800 C.3    91  MET91       0.0595
     19  SD        61.4660   12.8120   31.8400 S.3    91  MET91      -0.1393
     20  CE        62.1760   13.4130   33.3200 C.3    91  MET91       0.0692
     21  N         55.7140   12.4070   33.1190 N.3    93  CYS93      -0.1235
     22  CA        55.3320   13.7890   32.8840 C.3    93  CYS93       0.1677
     23  C         54.3190   13.8510   31.7010 C.2    93  CYS93       0.2270
     24  O         53.1370   14.2450   31.8760 O.2    93  CYS93      -0.2867
     25  CB        56.5840   14.6320   32.5620 C.3    93  CYS93       0.0956
     26  SG        58.2220   14.1030   33.2970 S.3    93  CYS93      -0.0801
     27  N         64.6890    3.1630   31.5810 N.3   122  ARG122     -0.1245
     28  CA        65.7190    3.9110   30.8930 C.3   122  ARG122      0.1563
     29  C         66.8730    3.0090   30.5250 C.2   122  ARG122      0.2260
     30  O         67.3030    2.1750   31.3270 O.2   122  ARG122     -0.2867
     31  CB        66.2080    5.0530   31.7910 C.3   122  ARG122      0.0307
     32  CG        65.1460    6.1200   32.0430 C.3   122  ARG122      0.0489
     33  CD        65.4240    7.0130   33.2210 C.3   122  ARG122      0.2205
     34  NE        64.5070    8.1400   33.1710 N.pl3 122  ARG122     -0.0865
     35  CZ        64.3830    9.0730   34.1110 C.cat 122  ARG122      0.5346
     36  NH1       65.1220    9.0300   35.2070 N.pl3 122  ARG122      0.1354
     37  NH2       63.5180   10.0650   33.9550 N.pl3 122  ARG122      0.1354
     38  N         69.9930    2.7020   30.6960 N.3   124  GLU124     -0.1245
     39  CA        71.1840    3.2000   31.3740 C.3   124  GLU124      0.1567
     40  C         72.3540    2.3800   30.8600 C.2   124  GLU124      0.2260
     41  O         72.2730    1.1600   30.7430 O.2   124  GLU124     -0.2867
     42  CB        71.0520    3.0500   32.8960 C.3   124  GLU124      0.0388
     43  CG        69.9250    3.8860   33.5190 C.3   124  GLU124      0.1160
     44  CD        70.1910    5.3950   33.4650 C.2   124  GLU124      0.3649
     45  OE1       71.0240    5.8200   32.6530 O.co2 124  GLU124     -0.2457
     46  OE2       69.5650    6.1730   34.2200 O.co2 124  GLU124     -0.2457
     47  N         70.3370   -1.5110   43.5510 N.3   132  LEU132     -0.1231
     48  CA        69.0320   -0.8630   43.4570 C.3   132  LEU132      0.1693
     49  C         69.2020    0.6510   43.2820 C.2   132  LEU132      0.2592
     50  O         68.2300    1.3990   43.2080 O.2   132  LEU132     -0.2718
     51  CB        68.2270   -1.0780   44.7360 C.3   132  LEU132      0.0284
     52  CG        68.1710   -2.4760   45.3490 C.3   132  LEU132      0.0019
     53  CD1       67.3980   -2.4220   46.6540 C.3   132  LEU132      0.0001
     54  CD2       67.5280   -3.4270   44.3970 C.3   132  LEU132      0.0001
     55  N         70.4450    1.1010   43.2270 N.am  133  MET133     -0.1965
     56  CA        70.7120    2.5210   43.1180 C.3   133  MET133      0.1736
     57  C         70.5810    3.0410   41.7120 C.2   133  MET133      0.2616
     58  O         70.0400    4.1130   41.5190 O.2   133  MET133     -0.2715
     59  CB        72.1270    2.8340   43.6230 C.3   133  MET133      0.0427
     60  CG        72.5210    2.1620   44.9430 C.3   133  MET133      0.0599
     61  SD        71.8520    2.8850   46.4640 S.3   133  MET133     -0.1393
     62  CE        73.1160    2.3800   47.5960 C.3   133  MET133      0.0692
     63  N         71.1080    2.3020   40.7400 N.am  134  ARG134     -0.1963
     64  CA        71.0520    2.7290   39.3400 C.3   134  ARG134      0.1729
     65  C         70.6290    1.5290   38.5580 C.2   134  ARG134      0.2616
     66  O         71.4580    0.6520   38.2610 O.2   134  ARG134     -0.2715
     67  CB        72.4360    3.1970   38.8390 C.3   134  ARG134      0.0348
     68  CG        72.4290    4.1100   37.5950 C.3   134  ARG134      0.0492
     69  CD        73.7190    4.9960   37.4560 C.3   134  ARG134      0.2205
     70  NE        73.7450    6.2400   38.2630 N.pl3 134  ARG134     -0.0865
     71  CZ        72.8710    7.2570   38.1680 C.cat 134  ARG134      0.5346
     72  NH1       71.8660    7.2120   37.3030 N.pl3 134  ARG134      0.1354
     73  NH2       72.9990    8.3430   38.9220 N.pl3 134  ARG134      0.1354
     74  N         69.3370    1.4990   38.2290 N.am  135  VAL135     -0.1977
     75  CA        68.7490    0.3990   37.4700 C.3   135  VAL135      0.1596
     76  C         68.1220    0.8430   36.1450 C.2   135  VAL135      0.2287
     77  O         67.8650    2.0250   35.9470 O.2   135  VAL135     -0.2864
     78  CB        67.6900   -0.2820   38.3070 C.3   135  VAL135      0.0276
     79  CG1       68.3420   -1.0880   39.3880 C.3   135  VAL135      0.0022
     80  CG2       66.7980    0.7530   38.9210 C.3   135  VAL135      0.0022
     81  N         62.8920    1.2580   37.0650 N.3   138  PHE138     -0.1241
     82  CA        62.4710    1.6240   38.4040 C.3   138  PHE138      0.1605
     83  C         61.0790    2.2120   38.5500 C.2   138  PHE138      0.2264
     84  O         60.2940    2.2220   37.6240 O.2   138  PHE138     -0.2867
     85  CB        63.4390    2.6200   38.9400 C.3   138  PHE138      0.0534
     86  CG        63.6120    3.7720   38.0490 C.ar  138  PHE138     -0.0203
     87  CD1       64.5080    3.6860   36.9660 C.ar  138  PHE138     -0.0042
     88  CD2       62.8780    4.9450   38.2880 C.ar  138  PHE138     -0.0042
     89  CE1       64.6840    4.7510   36.1240 C.ar  138  PHE138     -0.0003
     90  CE2       63.0320    6.0260   37.4630 C.ar  138  PHE138     -0.0003
     91  CZ        63.9480    5.9390   36.3620 C.ar  138  PHE138     -0.0000
     92  N         59.4600    5.7240   39.9800 N.3   140  GLN140     -0.1245
     93  CA        59.3940    7.0420   40.6070 C.3   140  GLN140      0.1566
     94  C         58.1430    7.2320   41.4650 C.2   140  GLN140      0.2260
     95  O         57.1060    6.6180   41.2320 O.2   140  GLN140     -0.2867
     96  CB        59.4090    8.1390   39.5480 C.3   140  GLN140      0.0367
     97  CG        60.6970    8.1970   38.7950 C.3   140  GLN140      0.0905
     98  CD        60.7210    9.3200   37.7880 C.2   140  GLN140      0.2608
     99  OE1       61.7770    9.5880   37.1880 O.2   140  GLN140     -0.2717
    100  NE2       59.5620    9.9840   37.5760 N.am  140  GLN140     -0.0878
    101  N         56.9170   10.1570   41.7670 N.3   142  ASP142     -0.1225
    102  CA        56.6050   11.5400   41.4520 C.3   142  ASP142      0.1805
    103  C         55.1730   11.9670   41.3040 C.2   142  ASP142      0.2598
    104  O         54.2100   11.2620   41.6160 O.2   142  ASP142     -0.2718
    105  CB        57.4260   12.0850   40.2590 C.3   142  ASP142      0.1424
    106  CG        57.0530   11.4610   38.9480 C.2   142  ASP142      0.3668
    107  OD1       57.0270   10.2230   38.9040 O.co2 142  ASP142     -0.2456
    108  OD2       56.8190   12.2120   37.9720 O.co2 142  ASP142     -0.2456
    109  N         55.0710   13.2020   40.8790 N.am  143  ALA143     -0.1966
    110  CA        53.8150   13.8160   40.6850 C.3   143  ALA143      0.1728
    111  C         54.2260   15.0430   39.8730 C.2   143  ALA143      0.2616
    112  O         55.4360   15.2950   39.6760 O.2   143  ALA143     -0.2715
    113  CB        53.2370   14.1910   42.0030 C.3   143  ALA143      0.0334
    114  N         53.2260   15.7440   39.3360 N.am  144  HIS144     -0.1973
    115  CA        53.4600   16.9580   38.6010 C.3   144  HIS144      0.1656
    116  C         52.4020   17.9320   39.0890 C.2   144  HIS144      0.2291
    117  O         51.2250   17.5740   39.3580 O.2   144  HIS144     -0.2864
    118  CB        53.3790   16.6820   37.1140 C.3   144  HIS144      0.0771
    119  CG        54.5380   15.8870   36.5940 C.ar  144  HIS144      0.0820
    120  ND1       54.5340   14.5110   36.5810 N.ar  144  HIS144     -0.2267
    121  CD2       55.7590   16.2670   36.1270 C.ar  144  HIS144      0.1154
    122  CE1       55.7050   14.0790   36.1370 C.ar  144  HIS144      0.1986
    123  NE2       56.4640   15.1240   35.8550 N.ar  144  HIS144     -0.2212
    124  N         64.2690   20.0370   30.2560 N.3   221  TYR221     -0.1241
    125  CA        63.1020   20.8940   30.2660 C.3   221  TYR221      0.1605
    126  C         62.9750   21.8860   31.4260 C.2   221  TYR221      0.2264
    127  O         61.8850   22.4430   31.6550 O.2   221  TYR221     -0.2867
    128  CB        61.8640   20.0340   30.2340 C.3   221  TYR221      0.0534
    129  CG        61.8300   18.9650   31.2870 C.ar  221  TYR221     -0.0201
    130  CD1       62.6980   17.8790   31.2380 C.ar  221  TYR221     -0.0009
    131  CD2       60.9120   19.0320   32.3410 C.ar  221  TYR221     -0.0009
    132  CE1       62.6370   16.8780   32.2240 C.ar  221  TYR221      0.0417
    133  CE2       60.8450   18.0570   33.3210 C.ar  221  TYR221      0.0417
    134  CZ        61.6880   16.9820   33.2690 C.ar  221  TYR221      0.1957
    135  OH        61.5300   16.0070   34.2260 O.3   221  TYR221     -0.2866
    136  N         66.7530   22.2460   38.0740 N.3   224  LYS224     -0.1245
    137  CA        66.4400   21.1400   38.9600 C.3   224  LYS224      0.1561
    138  C         67.1010   21.1260   40.3440 C.2   224  LYS224      0.2260
    139  O         68.3270   20.9660   40.4460 O.2   224  LYS224     -0.2867
    140  CB        66.7760   19.8450   38.2160 C.3   224  LYS224      0.0271
    141  CG        66.4080   18.5890   38.9480 C.3   224  LYS224      0.0035
    142  CD        66.8540   17.3710   38.1940 C.3   224  LYS224      0.0206
    143  CE        68.3530   17.3570   38.0390 C.3   224  LYS224      0.1093
    144  NZ        68.7810   16.0950   37.4080 N.3   224  LYS224     -0.1314
    145  N         71.4120   10.9850   43.9810 N.3   238  GLN238     -0.1231
    146  CA        70.2960   11.9020   43.8730 C.3   238  GLN238      0.1698
    147  C         69.0090   11.1540   44.1980 C.2   238  GLN238      0.2592
    148  O         68.6920   10.1540   43.5620 O.2   238  GLN238     -0.2718
    149  CB        70.2500   12.4900   42.4610 C.3   238  GLN238      0.0381
    150  CG        69.1060   13.4900   42.2070 C.3   238  GLN238      0.0905
    151  CD        68.9800   13.8790   40.7280 C.2   238  GLN238      0.2608
    152  OE1       68.0200   14.5580   40.3360 O.2   238  GLN238     -0.2717
    153  NE2       69.9500   13.4420   39.9020 N.am  238  GLN238     -0.0878
    154  N         68.2810   11.6300   45.2010 N.am  239  CYS239     -0.1970
    155  CA        67.0340   10.9850   45.5970 C.3   239  CYS239      0.1712
    156  C         65.8280   11.8660   45.3760 C.2   239  CYS239      0.2296
    157  O         65.0590   11.6250   44.4530 O.2   239  CYS239     -0.2864
    158  CB        67.1030   10.5290   47.0460 C.3   239  CYS239      0.0983
    159  SG        68.1550    9.0710   47.1670 S.3   239  CYS239     -0.0798
    160  N         63.8750   15.4470   44.3540 N.3   241  THR241     -0.1218
    161  CA        64.1250   16.4400   43.3020 C.3   241  THR241      0.1862
    162  C         62.8960   17.2540   42.9750 C.2   241  THR241      0.2287
    163  O         61.7670   16.7380   42.9640 O.2   241  THR241     -0.2866
    164  CB        64.6850   15.8010   42.0140 C.3   241  THR241      0.1770
    165  OG1       64.7000   16.7930   41.0020 O.3   241  THR241     -0.2211
    166  CG2       63.8520   14.5620   41.5580 C.3   241  THR241      0.0375
    167  N         61.6960   20.1370   40.1070 N.3   243  GLN243     -0.1245
    168  CA        62.0550   20.7820   38.8550 C.3   243  GLN243      0.1566
    169  C         60.9910   21.7710   38.4130 C.2   243  GLN243      0.2260
    170  O         59.7830   21.4980   38.5730 O.2   243  GLN243     -0.2867
    171  CB        62.2330   19.7030   37.8120 C.3   243  GLN243      0.0367
    172  CG        63.1540   18.5870   38.2530 C.3   243  GLN243      0.0905
    173  CD        62.9350   17.3080   37.4670 C.2   243  GLN243      0.2608
    174  OE1       62.3900   17.3340   36.3700 O.2   243  GLN243     -0.2717
    175  NE2       63.3680   16.1870   38.0140 N.am  243  GLN243     -0.0878
    176  N         57.7160   19.4960   38.4760 N.3   270  HIS270     -0.1226
    177  CA        58.0330   18.0660   38.5620 C.3   270  HIS270      0.1752
    178  C         58.6070   17.8670   39.9770 C.2   270  HIS270      0.2596
    179  O         59.2390   18.7830   40.5040 O.2   270  HIS270     -0.2718
    180  CB        59.1310   17.6640   37.5590 C.3   270  HIS270      0.0759
    181  CG        58.7640   17.8590   36.1250 C.ar  270  HIS270      0.0818
    182  ND1       58.5940   16.8110   35.2510 N.ar  270  HIS270     -0.2268
    183  CD2       58.5470   18.9830   35.4120 C.ar  270  HIS270      0.1154
    184  CE1       58.2840   17.2840   34.0620 C.ar  270  HIS270      0.1986
    185  NE2       58.2500   18.6000   34.1320 N.ar  270  HIS270     -0.2212
    186  N         58.4160   16.6870   40.5810 N.am  271  ARG271     -0.1966
    187  CA        58.9380   16.4410   41.9260 C.3   271  ARG271      0.1729
    188  C         58.7280   15.0190   42.4350 C.2   271  ARG271      0.2616
    189  O         57.6810   14.4260   42.2910 O.2   271  ARG271     -0.2715
    190  CB        58.3480   17.4880   42.8890 C.3   271  ARG271      0.0348
    191  CG        57.7030   17.0090   44.1740 C.3   271  ARG271      0.0492
    192  CD        56.2900   16.4720   44.0070 C.3   271  ARG271      0.2205
    193  NE        56.3240   15.0480   44.2730 N.pl3 271  ARG271     -0.0865
    194  CZ        55.4430   14.4060   45.0410 C.cat 271  ARG271      0.5346
    195  NH1       54.4280   15.0850   45.6200 N.pl3 271  ARG271      0.1354
    196  NH2       55.6120   13.0860   45.2700 N.pl3 271  ARG271      0.1354
    197  N         59.7770   14.4640   43.0030 N.am  272  ALA272     -0.1977
    198  CA        59.7530   13.1250   43.5720 C.3   272  ALA272      0.1597
    199  C         60.4170   13.2230   44.9670 C.2   272  ALA272      0.2287
    200  O         61.5900   13.6460   45.0680 O.2   272  ALA272     -0.2864
    201  CB        60.5560   12.1750   42.6860 C.3   272  ALA272      0.0319
    202  N         62.2250    9.8160   45.4890 N.3   275  GLY275     -0.1210
    203  CA        63.0220    9.7820   44.2680 C.3   275  GLY275      0.1956
    204  C         62.6930    8.5950   43.3800 C.2   275  GLY275      0.2612
    205  O         62.0530    8.7510   42.3450 O.2   275  GLY275     -0.2717
    206  N         63.1400    7.4130   43.8030 N.am  276  SER276     -0.1952
    207  CA        62.8960    6.1670   43.1030 C.3   276  SER276      0.1924
    208  C         62.7780    5.0830   44.1520 C.2   276  SER276      0.2314
    209  O         63.6710    4.9510   44.9710 O.2   276  SER276     -0.2863
    210  CB        64.0580    5.8630   42.1940 C.3   276  SER276      0.2116
    211  OG        64.1280    4.4850   42.0050 O.3   276  SER276     -0.2180
    212  N         65.9420    2.8280   44.4140 N.3   279  ARG279     -0.1245
    213  CA        67.1000    3.5800   44.8680 C.3   279  ARG279      0.1563
    214  C         66.9360    3.8800   46.3510 C.2   279  ARG279      0.2260
    215  O         67.7450    3.4450   47.1590 O.2   279  ARG279     -0.2867
    216  CB        67.2380    4.8810   44.0940 C.3   279  ARG279      0.0307
    217  CG        68.4300    5.6640   44.4980 C.3   279  ARG279      0.0489
    218  CD        68.6940    6.8310   43.5840 C.3   279  ARG279      0.2205
    219  NE        69.3940    6.4360   42.3620 N.pl3 279  ARG279     -0.0865
    220  CZ        69.7490    7.2810   41.3880 C.cat 279  ARG279      0.5346
    221  NH1       69.4710    8.5910   41.4850 N.pl3 279  ARG279      0.1354
    222  NH2       70.3780    6.8180   40.3050 N.pl3 279  ARG279      0.1354
@<TRIPOS>BOND
     1     1     2    1
     2     3     4    2
     3     3     2    1
     4     2     5    1
     5     5     6    1
     6     6     7   ar
     7     6     8   ar
     8     7     9   ar
     9     8    10   ar
    10     9    11   ar
    11    10    11   ar
    12   128   125    1
    13   128   129    1
    14   124   125    1
    15   125   126    1
    16    11    12    1
    17    29    28    1
    18    29    30    2
    19    38    39    1
    20    41    40    2
    21    40    39    1
    22    28    27    1
    23    28    31    1
    24   130   129   ar
    25   130   132   ar
    26   129   131   ar
    27    39    42    1
    28   126   127    2
    29    23    24    2
    30    23    22    1
    31    31    32    1
    32    13    14    1
    33    19    18    1
    34    19    20    1
    35    16    15    2
    36    32    33    1
    37   132   134   ar
    38    18    17    1
    39   131   133   ar
    40    25    22    1
    41    25    26    1
    42    45    44   ar
    43    17    14    1
    44    15    14    1
    45    22    21    1
    46    42    43    1
    47    34    33    1
    48    34    35    2
    49   134   133   ar
    50   134   135    1
    51    44    43    1
    52    44    46   ar
    53    37    35    1
    54   184   185   ar
    55   184   182   ar
    56    35    36    1
    57   185   183   ar
    58   182   181   ar
    59   183   181   ar
    60   123   121   ar
    61   123   122   ar
    62    77    76    2
    63    89    91   ar
    64    89    87   ar
    65   181   180    1
    66   121   119   ar
    67   122   120   ar
    68    76    75    1
    69    91    90   ar
    70   174   173    2
    71   120   119   ar
    72   119   118    1
    73    87    86   ar
    74    81    82    1
    75   118   115    1
    76    99    98    2
    77    72    71    1
    78   144   143    1
    79    69    68    1
    80    69    70    1
    81    90    88   ar
    82   173   175   am
    83   173   172    1
    84    75    74    1
    85    75    78    1
    86   180   177    1
    87   100    98   am
    88    68    67    1
    89    84    83    2
    90    98    97    1
    91   171   172    1
    92   171   168    1
    93   108   106   ar
    94   143   142    1
    95    86    88   ar
    96    86    85    1
    97   136   137    1
    98    71    70    2
    99    71    73    1
   100   142   141    1
   101   140   141    1
   102   140   137    1
   103    74    65   am
   104    66    65    2
   105    78    80    1
   106    78    79    1
   107    82    83    1
   108    82    85    1
   109   169   170    2
   110   169   168    1
   111   176   177    1
   112    65    64    1
   113   177   178    1
   114   115   116    1
   115   115   114    1
   116    97    96    1
   117    67    64    1
   118   168   167    1
   119   107   106   ar
   120   106   105    1
   121   137   138    1
   122   116   117    2
   123   114   111   am
   124    64    63    1
   125    96    93    1
   126   112   111    2
   127   111   110    1
   128   153   151   am
   129   178   179    2
   130   178   186   am
   131    92    93    1
   132   105   102    1
   133   222   220    1
   134   152   151    2
   135   138   139    2
   136   186   187    1
   137    93    94    1
   138   110   109    1
   139   110   113    1
   140   151   150    1
   141    63    57   am
   142   109   103   am
   143   165   164    1
   144    95    94    2
   145   103   102    1
   146   103   104    2
   147   220   221    1
   148   220   219    2
   149   102   101    1
   150    58    57    2
   151   166   164    1
   152    57    56    1
   153   187   188    1
   154   187   190    1
   155   211   210    1
   156   164   161    1
   157   210   207    1
   158   150   149    1
   159   189   188    2
   160   205   204    2
   161   219   218    1
   162   188   197   am
   163   149   146    1
   164   201   198    1
   165   190   191    1
   166   163   162    2
   167   162   161    1
   168   197   198    1
   169   207   206    1
   170   207   208    1
   171    56    55    1
   172    56    59    1
   173    50    49    2
   174    55    49   am
   175    49    48    1
   176   161   160    1
   177   204   206   am
   178   204   203    1
   179    48    47    1
   180    48    51    1
   181   148   147    2
   182   198   199    1
   183   218   217    1
   184    59    60    1
   185   146   145    1
   186   146   147    1
   187   192   191    1
   188   192   193    1
   189   216   217    1
   190   216   213    1
   191   208   209    2
   192   147   154   am
   193   203   202    1
   194   193   194    2
   195    54    52    1
   196   212   213    1
   197   157   156    2
   198    51    52    1
   199   213   214    1
   200    60    61    1
   201   199   200    2
   202   194   196    1
   203   194   195    1
   204   154   155    1
   205    52    53    1
   206   156   155    1
   207   155   158    1
   208   214   215    2
   209    61    62    1
   210   158   159    1
