@<TRIPOS>MOLECULE
tmp/1kojB00.pdb
 130 120 0 0 0
SMALL
GASTEIGER

@<TRIPOS>ATOM
      1  N         -4.1600  -19.5790   35.4730 N.3   156  ILE156     -0.1231
      2  CA        -4.2710  -18.2230   34.9500 C.3   156  ILE156      0.1692
      3  C         -5.0880  -17.3240   35.8630 C.2   156  ILE156      0.2593
      4  O         -5.8950  -17.8010   36.6620 O.2   156  ILE156     -0.2718
      5  CB        -4.8760  -18.2690   33.5200 C.3   156  ILE156      0.0266
      6  CG1       -4.6270  -16.9480   32.7900 C.3   156  ILE156      0.0019
      7  CG2       -6.3620  -18.5910   33.5830 C.3   156  ILE156      0.0020
      8  CD1       -4.8690  -17.0410   31.2900 C.3   156  ILE156      0.0001
      9  N         -4.8570  -16.0180   35.7720 N.am  157  GLY157     -0.1942
     10  CA        -5.5940  -15.0970   36.6160 C.3   157  GLY157      0.2014
     11  C         -5.2790  -15.2910   38.0850 C.2   157  GLY157      0.2639
     12  O         -4.1110  -15.2530   38.4780 O.2   157  GLY157     -0.2714
     13  N         -6.3180  -15.4990   38.8930 N.am  158  GLY158     -0.1939
     14  CA        -6.1390  -15.6980   40.3270 C.3   158  GLY158      0.2014
     15  C         -5.3510  -16.9480   40.6940 C.2   158  GLY158      0.2639
     16  O         -4.8210  -17.0430   41.8010 O.2   158  GLY158     -0.2714
     17  N         -5.2830  -17.9120   39.7800 N.am  159  SER159     -0.1949
     18  CA        -4.5250  -19.1420   40.0280 C.3   159  SER159      0.1924
     19  C         -3.0880  -19.0170   39.5120 C.2   159  SER159      0.2314
     20  O         -2.3550  -20.0060   39.4420 O.2   159  SER159     -0.2863
     21  CB        -5.2140  -20.3350   39.3540 C.3   159  SER159      0.2116
     22  OG        -6.4490  -20.6340   39.9960 O.3   159  SER159     -0.2180
     23  N         -3.1610  -25.5340   38.6660 N.3   208  ALA208     -0.1231
     24  CA        -3.9540  -24.6790   39.5340 C.3   208  ALA208      0.1694
     25  C         -5.2120  -24.1840   38.8410 C.2   208  ALA208      0.2593
     26  O         -5.1450  -23.4390   37.8580 O.2   208  ALA208     -0.2718
     27  CB        -3.1090  -23.4900   40.0030 C.3   208  ALA208      0.0304
     28  N         -6.3620  -24.5920   39.3610 N.am  209  SER209     -0.1938
     29  CA        -7.6320  -24.1810   38.7840 C.3   209  SER209      0.2055
     30  C         -8.7830  -24.4680   39.7390 C.2   209  SER209      0.2643
     31  O         -9.0680  -25.6220   40.0470 O.2   209  SER209     -0.2714
     32  CB        -7.8590  -24.9060   37.4600 C.3   209  SER209      0.2130
     33  OG        -9.0500  -24.4570   36.8370 O.3   209  SER209     -0.2179
     34  N         -9.4390  -23.4090   40.2060 N.am  210  LYS210     -0.1963
     35  CA       -10.5580  -23.5400   41.1290 C.3   210  LYS210      0.1728
     36  C        -11.6340  -24.4590   40.5520 C.2   210  LYS210      0.2616
     37  O        -12.1160  -25.3680   41.2290 O.2   210  LYS210     -0.2715
     38  CB       -11.1500  -22.1530   41.4390 C.3   210  LYS210      0.0311
     39  CG       -12.3130  -22.1640   42.4300 C.3   210  LYS210      0.0038
     40  CD       -12.7510  -20.7550   42.8080 C.3   210  LYS210      0.0206
     41  CE       -13.8990  -20.7790   43.8120 C.3   210  LYS210      0.1093
     42  NZ       -14.2860  -19.4070   44.2870 N.3   210  LYS210     -0.1314
     43  N        -11.9800  -24.2250   39.2870 N.am  211  THR211     -0.1951
     44  CA       -13.0090  -24.9890   38.5760 C.3   211  THR211      0.1897
     45  C        -12.4580  -26.1880   37.8150 C.2   211  THR211      0.2313
     46  O        -13.1680  -27.1650   37.5770 O.2   211  THR211     -0.2863
     47  CB       -13.7120  -24.1070   37.5360 C.3   211  THR211      0.1794
     48  OG1      -12.7450  -23.6700   36.5690 O.3   211  THR211     -0.2208
     49  CG2      -14.3580  -22.8900   38.1970 C.3   211  THR211      0.0378
     50  N        -11.2010  -24.1200   33.1300 N.3   214  THR214     -0.1218
     51  CA       -10.6960  -22.9810   32.3690 C.3   214  THR214      0.1862
     52  C         -9.9350  -23.4790   31.1440 C.2   214  THR214      0.2287
     53  O         -9.0200  -24.2990   31.2560 O.2   214  THR214     -0.2866
     54  CB        -9.7770  -22.1190   33.2440 C.3   214  THR214      0.1770
     55  OG1      -10.5160  -21.6620   34.3840 O.3   214  THR214     -0.2211
     56  CG2       -9.2560  -20.9250   32.4640 C.3   214  THR214      0.0375
     57  N         -5.8400  -23.0980   31.0160 N.3   217  THR217     -0.1218
     58  CA        -5.1660  -23.9970   31.9410 C.3   217  THR217      0.1862
     59  C         -5.2530  -25.4750   31.5590 C.2   217  THR217      0.2287
     60  O         -4.2450  -26.1810   31.5780 O.2   217  THR217     -0.2866
     61  CB        -5.7150  -23.8160   33.3620 C.3   217  THR217      0.1770
     62  OG1       -5.6250  -22.4330   33.7290 O.3   217  THR217     -0.2211
     63  CG2       -4.9160  -24.6500   34.3530 C.3   217  THR217      0.0375
     64  N        -10.7430  -16.3050   43.5260 N.3   271  GLY271     -0.1210
     65  CA        -9.5080  -16.5100   42.8000 C.3   271  GLY271      0.1956
     66  C         -8.4530  -15.4520   43.0810 C.2   271  GLY271      0.2611
     67  O         -7.3030  -15.7870   43.3720 O.2   271  GLY271     -0.2717
     68  N         -8.8370  -14.1760   43.0130 N.am  272  ARG272     -0.1979
     69  CA        -7.8930  -13.0850   43.2450 C.3   272  ARG272      0.1597
     70  C         -7.5300  -12.9280   44.7220 C.2   272  ARG272      0.2287
     71  O         -6.7590  -12.0380   45.0870 O.2   272  ARG272     -0.2864
     72  CB        -8.4610  -11.7650   42.6880 C.3   272  ARG272      0.0334
     73  CG        -9.8650  -11.4220   43.1790 C.3   272  ARG272      0.0492
     74  CD       -10.4150  -10.1620   42.5110 C.3   272  ARG272      0.2205
     75  NE       -11.8200   -9.9320   42.8470 N.pl3 272  ARG272     -0.0865
     76  CZ       -12.8400  -10.5770   42.2880 C.cat 272  ARG272      0.5346
     77  NH1      -12.6210  -11.4950   41.3560 N.pl3 272  ARG272      0.1354
     78  NH2      -14.0810  -10.3070   42.6720 N.pl3 272  ARG272      0.1354
     79  N         -5.1040   -6.4390   39.1990 N.3   353  GLN353     -0.1245
     80  CA        -6.1510   -7.4500   39.1230 C.3   353  GLN353      0.1566
     81  C         -7.0400   -7.3870   40.3710 C.2   353  GLN353      0.2260
     82  O         -8.2620   -7.2290   40.2880 O.2   353  GLN353     -0.2867
     83  CB        -5.5740   -8.8740   39.0180 C.3   353  GLN353      0.0367
     84  CG        -6.6760   -9.9110   39.2790 C.3   353  GLN353      0.0905
     85  CD        -6.3120  -11.3450   38.9360 C.2   353  GLN353      0.2608
     86  OE1       -5.1310  -11.6580   38.6970 O.2   353  GLN353     -0.2717
     87  NE2       -7.3050  -12.2180   38.8960 N.am  353  GLN353     -0.0878
     88  N        -10.6930   -6.1000   39.2110 N.3   357  GLU357     -0.1245
     89  CA       -11.6310   -7.2050   39.0550 C.3   357  GLU357      0.1567
     90  C        -12.6700   -7.1710   40.1830 C.2   357  GLU357      0.2260
     91  O        -13.7980   -7.6300   40.0150 O.2   357  GLU357     -0.2867
     92  CB       -10.8740   -8.5440   39.0650 C.3   357  GLU357      0.0388
     93  CG       -11.6510   -9.6960   38.4410 C.3   357  GLU357      0.1160
     94  CD       -10.9150  -11.0240   38.5270 C.2   357  GLU357      0.3649
     95  OE1      -11.4850  -12.0500   38.1000 O.co2 357  GLU357     -0.2457
     96  OE2       -9.7650  -11.0520   39.0200 O.co2 357  GLU357     -0.2457
     97  N        -17.4800  -11.6350   39.5830 N.3   511  GLN511     -0.1245
     98  CA       -16.7440  -11.1780   38.4100 C.3   511  GLN511      0.1566
     99  C        -17.4660  -11.6700   37.1580 C.2   511  GLN511      0.2260
    100  O        -16.9190  -12.4340   36.3700 O.2   511  GLN511     -0.2867
    101  CB       -15.2830  -11.6930   38.4380 C.3   511  GLN511      0.0367
    102  CG       -15.1200  -13.2210   38.4920 C.3   511  GLN511      0.0905
    103  CD       -15.4190  -13.7980   39.8660 C.2   511  GLN511      0.2608
    104  OE1      -15.1530  -13.1670   40.8940 O.2   511  GLN511     -0.2717
    105  NE2      -15.9850  -14.9960   39.8900 N.am  511  GLN511     -0.0878
    106  N        -15.6070  -11.4970   33.9470 N.3   514  VAL514     -0.1231
    107  CA       -14.5650  -12.5200   33.8330 C.3   514  VAL514      0.1692
    108  C        -15.2330  -13.8570   33.4800 C.2   514  VAL514      0.2591
    109  O        -14.7400  -14.6040   32.6320 O.2   514  VAL514     -0.2718
    110  CB       -13.7700  -12.6680   35.1670 C.3   514  VAL514      0.0266
    111  CG1      -12.9250  -13.9400   35.1560 C.3   514  VAL514      0.0020
    112  CG2      -12.8560  -11.4550   35.3540 C.3   514  VAL514      0.0020
    113  N        -16.3580  -14.1520   34.1270 N.am  515  GLU515     -0.1979
    114  CA       -17.0800  -15.3970   33.8590 C.3   515  GLU515      0.1602
    115  C        -17.5410  -15.4080   32.4050 C.2   515  GLU515      0.2287
    116  O        -17.4780  -16.4330   31.7250 O.2   515  GLU515     -0.2864
    117  CB       -18.2990  -15.5300   34.7790 C.3   515  GLU515      0.0415
    118  CG       -17.9910  -15.5910   36.2740 C.3   515  GLU515      0.1163
    119  CD       -17.0320  -16.7120   36.6480 C.2   515  GLU515      0.3649
    120  OE1      -17.0540  -17.7800   35.9910 O.co2 515  GLU515     -0.2457
    121  OE2      -16.2620  -16.5250   37.6180 O.co2 515  GLU515     -0.2457
    122  N        -14.8030  -16.2840   29.8290 N.3   518  LYS518     -0.1245
    123  CA       -14.4610  -17.7000   29.7180 C.3   518  LYS518      0.1561
    124  C        -15.4160  -18.4730   28.8060 C.2   518  LYS518      0.2260
    125  O        -15.2750  -19.6870   28.6480 O.2   518  LYS518     -0.2867
    126  CB       -14.4530  -18.3560   31.0970 C.3   518  LYS518      0.0271
    127  CG       -13.4170  -17.8090   32.0470 C.3   518  LYS518      0.0035
    128  CD       -13.5320  -18.4980   33.3940 C.3   518  LYS518      0.0206
    129  CE       -12.6580  -17.8290   34.4270 C.3   518  LYS518      0.1093
    130  NZ       -12.7450  -18.5080   35.7560 N.3   518  LYS518     -0.1314
@<TRIPOS>BOND
     1   125   124    2
     2   124   123    1
     3   123   122    1
     4   123   126    1
     5    57    58    1
     6   126   127    1
     7    52    53    2
     8    52    51    1
     9     8     6    1
    10    59    60    2
    11    59    58    1
    12   116   115    2
    13    58    61    1
    14   127   128    1
    15    51    50    1
    16    51    54    1
    17   115   114    1
    18    56    54    1
    19   109   108    2
    20     6     5    1
    21    54    55    1
    22    61    62    1
    23    61    63    1
    24   128   129    1
    25   108   107    1
    26   108   113   am
    27     5     7    1
    28     5     2    1
    29   107   106    1
    30   107   110    1
    31   114   113    1
    32   114   117    1
    33   129   130    1
    34   117   118    1
    35     2     1    1
    36     2     3    1
    37   111   110    1
    38   110   112    1
    39     9     3   am
    40     9    10    1
    41     3     4    2
    42   120   119   ar
    43   118   119    1
    44   100    99    2
    45    48    47    1
    46    10    11    1
    47   119   121   ar
    48    33    32    1
    49    99    98    1
    50    32    29    1
    51    47    49    1
    52    47    44    1
    53    46    45    2
    54    45    44    1
    55    26    25    2
    56    11    12    2
    57    11    13   am
    58    95    94   ar
    59    98   101    1
    60    98    97    1
    61   101   102    1
    62    93    94    1
    63    93    92    1
    64   102   103    1
    65    94    96   ar
    66    44    43    1
    67    23    24    1
    68    86    85    2
    69    29    28    1
    70    29    30    1
    71    25    28   am
    72    25    24    1
    73    13    14    1
    74    87    85   am
    75    85    84    1
    76    83    80    1
    77    83    84    1
    78    89    92    1
    79    89    88    1
    80    89    90    1
    81    80    79    1
    82    80    81    1
    83    43    36   am
    84    21    22    1
    85    21    18    1
    86    20    19    2
    87    19    18    1
    88    24    27    1
    89    30    31    2
    90    30    34   am
    91    17    18    1
    92    17    15   am
    93   103   105   am
    94   103   104    2
    95    91    90    2
    96    34    35    1
    97    82    81    2
    98    14    15    1
    99    36    35    1
   100    36    37    2
   101    15    16    2
   102    35    38    1
   103    77    76    1
   104    38    39    1
   105    76    78    1
   106    76    75    2
   107    39    40    1
   108    74    75    1
   109    74    73    1
   110    72    73    1
   111    72    69    1
   112    65    66    1
   113    65    64    1
   114    40    41    1
   115    68    66   am
   116    68    69    1
   117    66    67    2
   118    69    70    1
   119    41    42    1
   120    70    71    2
