@<TRIPOS>MOLECULE
tmp/1korB02.pdb
 91 85 0 0 0
SMALL
GASTEIGER

@<TRIPOS>ATOM
      1  N        -32.0970   62.6120   17.2350 N.3   114  GLY114     -0.1210
      2  CA       -32.9020   63.6270   17.8840 C.3   114  GLY114      0.1956
      3  C        -32.2990   64.2880   19.1120 C.2   114  GLY114      0.2612
      4  O        -33.0290   64.7060   20.0020 O.2   114  GLY114     -0.2717
      5  N        -30.9740   64.3740   19.1820 N.am  115  ALA115     -0.1965
      6  CA       -30.3330   65.0380   20.3130 C.3   115  ALA115      0.1728
      7  C        -30.4770   66.5400   20.0380 C.2   115  ALA115      0.2616
      8  O        -30.5060   66.9450   18.8700 O.2   115  ALA115     -0.2715
      9  CB       -28.8660   64.6480   20.3880 C.3   115  ALA115      0.0334
     10  N        -30.5770   67.3650   21.0830 N.am  116  THR116     -0.1951
     11  CA       -30.7280   68.8060   20.8620 C.3   116  THR116      0.1897
     12  C        -29.4030   69.5130   20.6150 C.2   116  THR116      0.2313
     13  O        -28.3260   68.9310   20.7830 O.2   116  THR116     -0.2863
     14  CB       -31.4280   69.5300   22.0440 C.3   116  THR116      0.1794
     15  OG1      -30.5080   69.6790   23.1330 O.3   116  THR116     -0.2208
     16  CG2      -32.6530   68.7490   22.5030 C.3   116  THR116      0.0378
     17  N        -28.2360   71.8660   22.3570 N.3   118  LYS118     -0.1231
     18  CA       -27.6480   72.3650   23.5890 C.3   118  LYS118      0.1693
     19  C        -27.0770   71.3070   24.5330 C.2   118  LYS118      0.2593
     20  O        -26.6420   71.6170   25.6480 O.2   118  LYS118     -0.2718
     21  CB       -28.6510   73.2760   24.3190 C.3   118  LYS118      0.0285
     22  CG       -30.1340   72.9050   24.2450 C.3   118  LYS118      0.0035
     23  CD       -30.7240   72.8170   22.8000 C.3   118  LYS118      0.0206
     24  CE       -30.5950   74.1020   21.9680 C.3   118  LYS118      0.1093
     25  NZ       -31.2770   73.9400   20.6210 N.3   118  LYS118     -0.1314
     26  N        -27.0320   70.0650   24.0610 N.am  119  GLY119     -0.1942
     27  CA       -26.5090   68.9930   24.8850 C.3   119  GLY119      0.2014
     28  C        -25.1880   68.4190   24.4210 C.2   119  GLY119      0.2639
     29  O        -24.5580   68.9320   23.4940 O.2   119  GLY119     -0.2714
     30  N        -24.7760   67.3410   25.0810 N.am  120  ASN120     -0.1958
     31  CA       -23.5370   66.6430   24.7730 C.3   120  ASN120      0.1819
     32  C        -23.7380   65.5320   23.7360 C.2   120  ASN120      0.2621
     33  O        -22.8560   65.2810   22.9160 O.2   120  ASN120     -0.2715
     34  CB       -22.9580   66.0030   26.0480 C.3   120  ASN120      0.1195
     35  CG       -22.5370   67.0270   27.0840 C.2   120  ASN120      0.2630
     36  OD1      -21.7700   67.9400   26.7840 O.2   120  ASN120     -0.2716
     37  ND2      -23.0270   66.8760   28.3130 N.am  120  ASN120     -0.0877
     38  N        -24.8880   64.8570   23.7940 N.am  121  ASP121     -0.1957
     39  CA       -25.1700   63.7340   22.8940 C.3   121  ASP121      0.1840
     40  C        -24.9720   64.0280   21.4110 C.2   121  ASP121      0.2621
     41  O        -24.5060   63.1720   20.6650 O.2   121  ASP121     -0.2715
     42  CB       -26.5870   63.1880   23.1260 C.3   121  ASP121      0.1450
     43  CG       -26.7410   62.4890   24.4820 C.2   121  ASP121      0.3671
     44  OD1      -25.7570   61.9040   24.9910 O.co2 121  ASP121     -0.2456
     45  OD2      -27.8590   62.5130   25.0330 O.co2 121  ASP121     -0.2456
     46  N        -25.3310   65.2330   20.9840 N.am  122  GLN122     -0.1977
     47  CA       -25.1620   65.6140   19.5860 C.3   122  GLN122      0.1601
     48  C        -23.6900   65.4760   19.1860 C.2   122  GLN122      0.2287
     49  O        -23.3710   64.9720   18.1100 O.2   122  GLN122     -0.2864
     50  CB       -25.6290   67.0570   19.3770 C.3   122  GLN122      0.0394
     51  CG       -24.9700   68.0600   20.3230 C.3   122  GLN122      0.0908
     52  CD       -25.3960   69.4960   20.0580 C.2   122  GLN122      0.2608
     53  OE1      -25.1780   70.3870   20.8850 O.2   122  GLN122     -0.2717
     54  NE2      -25.9910   69.7300   18.8980 N.am  122  GLN122     -0.0878
     55  N        -21.3310   63.5770   20.6670 N.3   124  ARG124     -0.1245
     56  CA       -20.9170   62.1780   20.7000 C.3   124  ARG124      0.1563
     57  C        -21.3580   61.4610   19.4230 C.2   124  ARG124      0.2260
     58  O        -20.5890   60.7250   18.8110 O.2   124  ARG124     -0.2867
     59  CB       -21.5040   61.5000   21.9460 C.3   124  ARG124      0.0307
     60  CG       -20.9950   62.1260   23.2560 C.3   124  ARG124      0.0489
     61  CD       -21.9350   61.8630   24.4370 C.3   124  ARG124      0.2205
     62  NE       -21.4550   62.4960   25.6690 N.pl3 124  ARG124     -0.0865
     63  CZ       -22.1990   62.6790   26.7570 C.cat 124  ARG124      0.5346
     64  NH1      -23.4650   62.2810   26.7720 N.pl3 124  ARG124      0.1354
     65  NH2      -21.6770   63.2580   27.8330 N.pl3 124  ARG124      0.1354
     66  N        -36.1770   64.7710   32.4090 N.3   168  SER168     -0.1217
     67  CA       -35.8050   63.9120   31.2910 C.3   168  SER168      0.1889
     68  C        -34.9420   62.7370   31.7660 C.2   168  SER168      0.2288
     69  O        -34.0210   62.9250   32.5590 O.2   168  SER168     -0.2866
     70  CB       -35.0490   64.7490   30.2550 C.3   168  SER168      0.2089
     71  OG       -34.5980   63.9480   29.1860 O.3   168  SER168     -0.2183
     72  N        -32.3700   64.5410   34.5120 N.3   179  GLU179     -0.1245
     73  CA       -32.0020   65.9490   34.4830 C.3   179  GLU179      0.1567
     74  C        -33.1200   66.7930   33.8800 C.2   179  GLU179      0.2260
     75  O        -34.0340   66.2650   33.2500 O.2   179  GLU179     -0.2867
     76  CB       -30.6600   66.1640   33.7490 C.3   179  GLU179      0.0388
     77  CG       -30.6070   65.7890   32.2800 C.3   179  GLU179      0.1160
     78  CD       -29.1990   65.9610   31.6840 C.2   179  GLU179      0.3649
     79  OE1      -29.0940   66.4150   30.5260 O.co2 179  GLU179     -0.2457
     80  OE2      -28.1960   65.6360   32.3650 O.co2 179  GLU179     -0.2457
     81  N        -20.9630   70.8190   30.8970 N.3   255  ARG255     -0.1245
     82  CA       -21.1680   70.2330   29.5760 C.3   255  ARG255      0.1563
     83  C        -20.0590   70.7030   28.6460 C.2   255  ARG255      0.2260
     84  O        -19.4360   71.7300   28.8930 O.2   255  ARG255     -0.2867
     85  CB       -22.5180   70.6530   28.9820 C.3   255  ARG255      0.0307
     86  CG       -23.7250   69.9790   29.6000 C.3   255  ARG255      0.0489
     87  CD       -24.9920   70.3030   28.8130 C.3   255  ARG255      0.2205
     88  NE       -26.1850   69.7370   29.4370 N.pl3 255  ARG255     -0.0865
     89  CZ       -27.4230   70.1350   29.1640 C.cat 255  ARG255      0.5346
     90  NH1      -27.6280   71.1030   28.2770 N.pl3 255  ARG255      0.1354
     91  NH2      -28.4560   69.5750   29.7810 N.pl3 255  ARG255      0.1354
@<TRIPOS>BOND
     1     1     2    1
     2     2     3    1
     3    49    48    2
     4    58    57    2
     5     8     7    2
     6    54    52   am
     7     3     5   am
     8     3     4    2
     9     5     6    1
    10    48    47    1
    11    50    47    1
    12    50    51    1
    13    57    56    1
    14    47    46    1
    15     7     6    1
    16     7    10   am
    17    52    51    1
    18    52    53    2
    19     6     9    1
    20    12    13    2
    21    12    11    1
    22    25    24    1
    23    41    40    2
    24    55    56    1
    25    56    59    1
    26    11    10    1
    27    11    14    1
    28    46    40   am
    29    40    39    1
    30    59    60    1
    31    24    23    1
    32    14    16    1
    33    14    15    1
    34    17    18    1
    35    23    22    1
    36    39    42    1
    37    39    38    1
    38    33    32    2
    39    42    43    1
    40    60    61    1
    41    29    28    2
    42    18    21    1
    43    18    19    1
    44    32    38   am
    45    32    31    1
    46    26    19   am
    47    26    27    1
    48    22    21    1
    49    28    27    1
    50    28    30   am
    51    61    62    1
    52    43    44   ar
    53    43    45   ar
    54    19    20    2
    55    31    30    1
    56    31    34    1
    57    62    63    2
    58    34    35    1
    59    63    64    1
    60    63    65    1
    61    36    35    2
    62    35    37   am
    63    90    89    1
    64    83    84    2
    65    83    82    1
    66    87    88    1
    67    87    86    1
    68    85    82    1
    69    85    86    1
    70    89    88    2
    71    89    91    1
    72    71    70    1
    73    82    81    1
    74    70    67    1
    75    79    78   ar
    76    67    68    1
    77    67    66    1
    78    78    77    1
    79    78    80   ar
    80    68    69    2
    81    77    76    1
    82    75    74    2
    83    76    73    1
    84    74    73    1
    85    73    72    1
