@<TRIPOS>MOLECULE
tmp/1kouA00.pdb
 114 107 0 0 0
SMALL
GASTEIGER

@<TRIPOS>ATOM
      1  N         20.0320   12.4060   -0.0640 N.3    28  ILE28      -0.1245
      2  CA        20.0470   13.2010   -1.2840 C.3    28  ILE28       0.1561
      3  C         20.2830   14.6400   -0.8720 C.2    28  ILE28       0.2260
      4  O         19.6200   15.1420    0.0330 O.2    28  ILE28      -0.2867
      5  CB        18.7020   13.1080   -2.0630 C.3    28  ILE28       0.0252
      6  CG1       18.2600   11.6590   -2.3050 C.3    28  ILE28       0.0019
      7  CG2       18.7820   13.9130   -3.3600 C.3    28  ILE28       0.0019
      8  CD1       16.8730   11.5600   -2.8530 C.3    28  ILE28       0.0001
      9  N         23.8730   12.1140   -3.9420 N.3    39  TYR39      -0.1241
     10  CA        22.9250   11.0100   -3.9370 C.3    39  TYR39       0.1605
     11  C         23.7000    9.7650   -3.5030 C.2    39  TYR39       0.2264
     12  O         24.6030    9.3710   -4.2320 O.2    39  TYR39      -0.2867
     13  CB        22.3390   10.8600   -5.3410 C.3    39  TYR39       0.0534
     14  CG        21.1050   10.0230   -5.4950 C.ar   39  TYR39      -0.0201
     15  CD1       21.1650    8.6450   -5.5770 C.ar   39  TYR39      -0.0009
     16  CD2       19.8500   10.6000   -5.6410 C.ar   39  TYR39      -0.0009
     17  CE1       20.0400    7.8700   -5.7350 C.ar   39  TYR39       0.0417
     18  CE2       18.7270    9.8270   -5.8460 C.ar   39  TYR39       0.0417
     19  CZ        18.8030    8.4570   -5.8890 C.ar   39  TYR39       0.1957
     20  OH        17.6720    7.6710   -6.0630 O.3    39  TYR39      -0.2866
     21  N         20.4130    5.2200   -1.0510 N.3    43  GLU43      -0.1245
     22  CA        19.2450    5.6910   -1.7860 C.3    43  GLU43       0.1567
     23  C         19.0510    4.8760   -3.0420 C.2    43  GLU43       0.2260
     24  O         17.9380    4.4850   -3.3950 O.2    43  GLU43      -0.2867
     25  CB        19.3090    7.1820   -2.0690 C.3    43  GLU43       0.0388
     26  CG        18.0740    7.7780   -2.7120 C.3    43  GLU43       0.1160
     27  CD        16.8260    7.6960   -1.8810 C.2    43  GLU43       0.3649
     28  OE1       16.8640    7.3300   -0.7110 O.co2  43  GLU43      -0.2457
     29  OE2       15.7160    8.0630   -2.4090 O.co2  43  GLU43      -0.2457
     30  N         15.8540    2.7340   -4.7030 N.3    47  THR47      -0.1218
     31  CA        15.1040    3.2440   -5.8540 C.3    47  THR47       0.1862
     32  C         15.5360    2.6810   -7.1920 C.2    47  THR47       0.2287
     33  O         14.8380    2.8910   -8.1970 O.2    47  THR47      -0.2866
     34  CB        15.2290    4.7880   -5.9510 C.3    47  THR47       0.1770
     35  OG1       16.5860    5.1110   -6.2080 O.3    47  THR47      -0.2211
     36  CG2       14.8940    5.4600   -4.6370 C.3    47  THR47       0.0375
     37  N         18.1980    3.6190   -9.0040 N.3    49  ARG49      -0.1245
     38  CA        18.8050    4.7240   -9.6590 C.3    49  ARG49       0.1563
     39  C         20.2950    4.6210   -9.3900 C.2    49  ARG49       0.2260
     40  O         20.7070    4.3730   -8.2600 O.2    49  ARG49      -0.2867
     41  CB        18.2770    6.0960   -9.2830 C.3    49  ARG49       0.0307
     42  CG        17.0770    6.5580  -10.0800 C.3    49  ARG49       0.0489
     43  CD        15.8150    5.7610   -9.7940 C.3    49  ARG49       0.2205
     44  NE        14.6300    6.3980  -10.3560 N.pl3  49  ARG49      -0.0865
     45  CZ        13.3860    6.0120  -10.2010 C.cat  49  ARG49       0.5346
     46  NH1       13.1090    4.9450   -9.4660 N.pl3  49  ARG49       0.1354
     47  NH2       12.3910    6.7110  -10.7520 N.pl3  49  ARG49       0.1354
     48  N         15.2340   16.7250   -9.3790 N.3    59  PHE59      -0.1241
     49  CA        14.5350   15.7030   -8.6110 C.3    59  PHE59       0.1605
     50  C         13.0350   15.7530   -8.8470 C.2    59  PHE59       0.2264
     51  O         12.4310   14.7170   -9.0240 O.2    59  PHE59      -0.2867
     52  CB        14.9210   15.8710   -7.1280 C.3    59  PHE59       0.0534
     53  CG        14.3520   14.8090   -6.2200 C.ar   59  PHE59      -0.0203
     54  CD1       14.9120   13.5500   -6.1070 C.ar   59  PHE59      -0.0042
     55  CD2       13.2550   15.1070   -5.3970 C.ar   59  PHE59      -0.0042
     56  CE1       14.3560   12.5890   -5.3070 C.ar   59  PHE59      -0.0003
     57  CE2       12.7210   14.1360   -4.5900 C.ar   59  PHE59      -0.0003
     58  CZ        13.2820   12.8780   -4.4930 C.ar   59  PHE59      -0.0000
     59  N         13.3220   13.0660  -11.9580 N.3    63  VAL63      -0.1231
     60  CA        13.6720   11.8380  -11.2970 C.3    63  VAL63       0.1692
     61  C         12.5030   11.2270  -10.5450 C.2    63  VAL63       0.2591
     62  O         12.2590   10.0280  -10.5900 O.2    63  VAL63      -0.2718
     63  CB        14.8970   12.0390  -10.3740 C.3    63  VAL63       0.0266
     64  CG1       15.2490   10.7860   -9.6150 C.3    63  VAL63       0.0020
     65  CG2       16.0720   12.4820  -11.2110 C.3    63  VAL63       0.0020
     66  N         11.8150   12.0640   -9.8060 N.am   64  ALA64      -0.1980
     67  CA        10.8370   11.6880   -8.7870 C.3    64  ALA64       0.1597
     68  C          9.5190   12.4270   -8.9650 C.2    64  ALA64       0.2287
     69  O          9.0910   13.1540   -8.0680 O.2    64  ALA64      -0.2864
     70  CB        11.5020   11.9010   -7.4240 C.3    64  ALA64       0.0319
     71  N          6.5400   11.5710   -8.6650 N.3    66  CYS66      -0.1221
     72  CA         5.5500   11.2720   -7.6670 C.3    66  CYS66       0.1808
     73  C          5.6820   12.1870   -6.4580 C.2    66  CYS66       0.2601
     74  O          4.7140   12.3140   -5.6980 O.2    66  CYS66      -0.2717
     75  CB         5.5530    9.8140   -7.2400 C.3    66  CYS66       0.0970
     76  SG         6.8580    9.3280   -6.1080 S.3    66  CYS66      -0.0800
     77  N          6.8180   12.8530   -6.2880 N.am   67  THR67      -0.1953
     78  CA         7.0550   13.7430   -5.1720 C.3    67  THR67       0.1897
     79  C          6.6470   15.1680   -5.5040 C.2    67  THR67       0.2313
     80  O          6.6910   16.0310   -4.6400 O.2    67  THR67      -0.2863
     81  CB         8.5240   13.7150   -4.7170 C.3    67  THR67       0.1794
     82  OG1        9.3480   14.3500   -5.6820 O.3    67  THR67      -0.2208
     83  CG2        9.0320   12.3150   -4.4790 C.3    67  THR67       0.0378
     84  N          7.0310    5.8730   -2.9020 N.3    93  PHE93      -0.1241
     85  CA         7.7740    6.0950   -4.1490 C.3    93  PHE93       0.1605
     86  C          7.3930    5.0420   -5.1680 C.2    93  PHE93       0.2264
     87  O          7.5400    3.8490   -4.9010 O.2    93  PHE93      -0.2867
     88  CB         9.2810    6.0200   -3.8870 C.3    93  PHE93       0.0534
     89  CG         9.8720    7.1380   -3.0540 C.ar   93  PHE93      -0.0203
     90  CD1        9.1860    8.2930   -2.7410 C.ar   93  PHE93      -0.0042
     91  CD2       11.1570    7.0080   -2.5730 C.ar   93  PHE93      -0.0042
     92  CE1        9.7520    9.2830   -1.9710 C.ar   93  PHE93      -0.0003
     93  CE2       11.7640    7.9990   -1.8320 C.ar   93  PHE93      -0.0003
     94  CZ        11.0990    9.1810   -1.5860 C.ar   93  PHE93      -0.0000
     95  N          7.5270    5.6500   -9.0800 N.3    95  TYR95      -0.1241
     96  CA         7.8130    5.9210  -10.4720 C.3    95  TYR95       0.1605
     97  C          9.0050    5.0710  -10.9300 C.2    95  TYR95       0.2264
     98  O         10.1040    5.2210  -10.3630 O.2    95  TYR95      -0.2867
     99  CB         8.1630    7.3830  -10.7020 C.3    95  TYR95       0.0534
    100  CG         8.4350    7.7190  -12.1600 C.ar   95  TYR95      -0.0201
    101  CD1        7.4220    7.6180  -13.0780 C.ar   95  TYR95      -0.0009
    102  CD2        9.6600    8.2210  -12.5790 C.ar   95  TYR95      -0.0009
    103  CE1        7.6020    7.9580  -14.4110 C.ar   95  TYR95       0.0417
    104  CE2        9.8430    8.5920  -13.8920 C.ar   95  TYR95       0.0417
    105  CZ         8.8180    8.4770  -14.7980 C.ar   95  TYR95       0.1957
    106  OH         9.0750    8.8250  -16.1060 O.3    95  TYR95      -0.2866
    107  N          9.6400    2.0990  -10.3970 N.3    97  MET97      -0.1196
    108  CA        10.0800    1.2230   -9.3140 C.3    97  MET97       0.1786
    109  C          8.8370    0.5410   -8.7370 C.2    97  MET97       0.2306
    110  O          7.7320    1.0640   -8.9030 O.2    97  MET97      -0.2863
    111  CB        10.8420    1.9710   -8.2210 C.2    97  MET97       0.0070
    112  CG        10.1110    3.1080   -7.5570 C.2    97  MET97       0.0282
    113  SD        11.1120    4.1920   -6.5000 S.3    97  MET97      -0.1125
    114  CE        11.1630    3.1750   -5.0360 C.3    97  MET97       0.0742
@<TRIPOS>BOND
     1   106   105    1
     2   105   103   ar
     3   105   104   ar
     4   103   101   ar
     5   104   102   ar
     6   101   100   ar
     7   102   100   ar
     8   100    99    1
     9    59    60    1
    10    60    61    1
    11    60    63    1
    12    65    63    1
    13    97    96    1
    14    97    98    2
    15    47    45    1
    16    99    96    1
    17    62    61    2
    18    61    66   am
    19    96    95    1
    20   107   108    1
    21    63    64    1
    22    44    45    2
    23    44    43    1
    24    45    46    1
    25    42    43    1
    26    42    41    1
    27    66    67    1
    28    38    39    1
    29    38    41    1
    30    38    37    1
    31    39    40    2
    32    48    49    1
    33   108   109    1
    34   108   111    1
    35    51    50    2
    36    68    67    1
    37    68    69    2
    38   110   109    2
    39    50    49    1
    40    67    70    1
    41    71    72    1
    42    49    52    1
    43   111   112    2
    44    33    32    2
    45    72    75    1
    46    72    73    1
    47   112   113    1
    48    75    76    1
    49    32    31    1
    50    52    53    1
    51   113   114    1
    52    73    77   am
    53    73    74    2
    54    77    78    1
    55    53    54   ar
    56    53    55   ar
    57    35    34    1
    58    54    56   ar
    59    20    19    1
    60    34    31    1
    61    34    36    1
    62    19    18   ar
    63    19    17   ar
    64    31    30    1
    65    18    16   ar
    66    17    15   ar
    67    82    81    1
    68    16    14   ar
    69    15    14   ar
    70    79    78    1
    71    79    80    2
    72    14    13    1
    73    55    57   ar
    74    13    10    1
    75    56    58   ar
    76    78    81    1
    77    86    87    2
    78    86    85    1
    79    81    83    1
    80    57    58   ar
    81    12    11    2
    82    85    88    1
    83    85    84    1
    84     9    10    1
    85    10    11    1
    86    88    89    1
    87    24    23    2
    88     7     5    1
    89    89    90   ar
    90    89    91   ar
    91    23    22    1
    92     8     6    1
    93    90    92   ar
    94    26    25    1
    95    26    27    1
    96    91    93   ar
    97    29    27   ar
    98     6     5    1
    99    25    22    1
   100     5     2    1
   101    92    94   ar
   102    27    28   ar
   103    93    94   ar
   104    22    21    1
   105     2     3    1
   106     2     1    1
   107     3     4    2
