@<TRIPOS>MOLECULE
tmp/1kp3A02.pdb
 110 101 0 0 0
SMALL
GASTEIGER

@<TRIPOS>ATOM
      1  N         24.4500   14.4870   45.4280 N.3   106  ARG106     -0.1245
      2  CA        24.3850   13.4340   44.4010 C.3   106  ARG106      0.1563
      3  C         23.5290   12.2370   44.8110 C.2   106  ARG106      0.2260
      4  O         22.9060   11.6060   43.9680 O.2   106  ARG106     -0.2867
      5  CB        25.7820   12.9100   44.0340 C.3   106  ARG106      0.0307
      6  CG        26.8140   13.9600   43.6440 C.3   106  ARG106      0.0489
      7  CD        26.3220   14.9700   42.5970 C.3   106  ARG106      0.2205
      8  NE        27.4220   15.8690   42.2120 N.pl3 106  ARG106     -0.0865
      9  CZ        27.2690   17.0730   41.6680 C.cat 106  ARG106      0.5346
     10  NH1       26.0510   17.5550   41.4370 N.pl3 106  ARG106      0.1354
     11  NH2       28.3370   17.7910   41.3490 N.pl3 106  ARG106      0.1354
     12  N         26.3730   15.3420   32.8810 N.3   128  GLY128     -0.1210
     13  CA        27.5280   15.9800   32.2750 C.3   128  GLY128      0.1956
     14  C         28.8140   15.9590   33.0850 C.2   128  GLY128      0.2613
     15  O         29.6950   16.7770   32.8320 O.2   128  GLY128     -0.2717
     16  N         28.9320   15.0450   34.0480 N.am  129  SER129     -0.1938
     17  CA        30.1390   14.9260   34.8820 C.3   129  SER129      0.2055
     18  C         31.3320   14.5080   34.0350 C.2   129  SER129      0.2643
     19  O         31.1860   13.6980   33.1340 O.2   129  SER129     -0.2714
     20  CB        29.9570   13.8520   35.9670 C.3   129  SER129      0.2130
     21  OG        28.8640   14.1540   36.8180 O.3   129  SER129     -0.2179
     22  N         32.5140   15.0360   34.3450 N.am  130  THR130     -0.1950
     23  CA        33.7130   14.6710   33.5990 C.3   130  THR130      0.1897
     24  C         34.0870   13.2210   33.9160 C.2   130  THR130      0.2313
     25  O         33.7700   12.7140   34.9830 O.2   130  THR130     -0.2863
     26  CB        34.9100   15.5840   33.9700 C.3   130  THR130      0.1794
     27  OG1       36.0540   15.2110   33.1890 O.3   130  THR130     -0.2208
     28  CG2       35.2590   15.4440   35.4350 C.3   130  THR130      0.0378
     29  N         36.4680   12.5500   37.2840 N.3   133  GLY133     -0.1210
     30  CA        36.1330   12.8210   38.6760 C.3   133  GLY133      0.1956
     31  C         35.3320   11.8060   39.4720 C.2   133  GLY133      0.2612
     32  O         35.1580   10.6610   39.0500 O.2   133  GLY133     -0.2717
     33  N         34.8500   12.2450   40.6370 N.am  134  ASN134     -0.1960
     34  CA        34.0630   11.4170   41.5400 C.3   134  ASN134      0.1819
     35  C         32.6020   11.3490   41.1270 C.2   134  ASN134      0.2621
     36  O         31.9880   10.2810   41.1520 O.2   134  ASN134     -0.2715
     37  CB        34.0970   11.9760   42.9660 C.3   134  ASN134      0.1195
     38  CG        35.4920   11.9850   43.5820 C.2   134  ASN134      0.2630
     39  OD1       36.2670   11.0440   43.4130 O.2   134  ASN134     -0.2716
     40  ND2       35.7960   13.0400   44.3390 N.am  134  ASN134     -0.0877
     41  N         32.0500   12.4960   40.7450 N.am  135  ASP135     -0.1957
     42  CA        30.6440   12.5740   40.3890 C.3   135  ASP135      0.1840
     43  C         30.1430   11.6180   39.3210 C.2   135  ASP135      0.2621
     44  O         29.0580   11.0570   39.4690 O.2   135  ASP135     -0.2715
     45  CB        30.2820   14.0160   40.0400 C.3   135  ASP135      0.1450
     46  CG        30.3210   14.9160   41.2540 C.2   135  ASP135      0.3671
     47  OD1       30.5980   16.1180   41.0950 O.co2 135  ASP135     -0.2456
     48  OD2       30.0710   14.4200   42.3740 O.co2 135  ASP135     -0.2456
     49  N         30.9140   11.4000   38.2620 N.am  136  ILE136     -0.1977
     50  CA        30.4510   10.4760   37.2310 C.3   136  ILE136      0.1596
     51  C         30.1780    9.0930   37.8310 C.2   136  ILE136      0.2287
     52  O         29.2820    8.3710   37.3810 O.2   136  ILE136     -0.2864
     53  CB        31.4580   10.3630   36.0660 C.3   136  ILE136      0.0276
     54  CG1       30.8030    9.6060   34.9130 C.3   136  ILE136      0.0022
     55  CG2       32.7200    9.6540   36.5040 C.3   136  ILE136      0.0022
     56  CD1       31.4410    9.8890   33.5690 C.3   136  ILE136      0.0001
     57  N         29.4630    8.6330   41.2310 N.3   138  ARG138     -0.1245
     58  CA        28.3710    8.7280   42.2000 C.3   138  ARG138      0.1563
     59  C         27.0480    8.5980   41.4480 C.2   138  ARG138      0.2260
     60  O         26.1930    7.8050   41.8340 O.2   138  ARG138     -0.2867
     61  CB        28.4070   10.0600   42.9560 C.3   138  ARG138      0.0307
     62  CG        29.5330   10.1570   43.9740 C.3   138  ARG138      0.0489
     63  CD        29.7310   11.5920   44.4510 C.3   138  ARG138      0.2205
     64  NE        30.8870   11.6840   45.3350 N.pl3 138  ARG138     -0.0865
     65  CZ        31.6680   12.7550   45.4570 C.cat 138  ARG138      0.5346
     66  NH1       31.4300   13.8470   44.7430 N.pl3 138  ARG138      0.1354
     67  NH2       32.6820   12.7410   46.3170 N.pl3 138  ARG138      0.1354
     68  N         30.2970   24.1260   42.7460 N.3   193  ASP193     -0.1239
     69  CA        29.1720   23.2040   42.8600 C.3   193  ASP193      0.1674
     70  C         28.4920   23.6180   44.1580 C.2   193  ASP193      0.2266
     71  O         29.1580   23.8280   45.1790 O.2   193  ASP193     -0.2867
     72  CB        29.6540   21.7650   43.0000 C.3   193  ASP193      0.1410
     73  CG        30.0240   21.1350   41.6700 C.2   193  ASP193      0.3668
     74  OD1       29.9650   21.8380   40.6310 O.co2 193  ASP193     -0.2456
     75  OD2       30.3720   19.9290   41.6670 O.co2 193  ASP193     -0.2456
     76  N         36.6630   24.3570   43.4810 N.3   202  GLU202     -0.1245
     77  CA        37.8840   23.6680   43.0940 C.3   202  GLU202      0.1567
     78  C         38.2500   23.8610   41.6290 C.2   202  GLU202      0.2260
     79  O         37.5680   24.5650   40.8920 O.2   202  GLU202     -0.2867
     80  CB        37.8110   22.1720   43.4190 C.3   202  GLU202      0.0388
     81  CG        36.5100   21.4720   43.1040 C.3   202  GLU202      0.1160
     82  CD        36.4990   20.0460   43.6810 C.2   202  GLU202      0.3649
     83  OE1       37.1020   19.1280   43.0670 O.co2 202  GLU202     -0.2457
     84  OE2       35.9110   19.8540   44.7690 O.co2 202  GLU202     -0.2457
     85  N         42.2300   16.2360   49.5740 N.3   279  GLU279     -0.1245
     86  CA        41.5810   14.9730   49.8860 C.3   279  GLU279      0.1567
     87  C         41.8230   13.8980   48.8420 C.2   279  GLU279      0.2260
     88  O         42.2280   14.1940   47.7240 O.2   279  GLU279     -0.2867
     89  CB        40.0820   15.2140   50.0120 C.3   279  GLU279      0.0388
     90  CG        39.4290   15.4510   48.6670 C.3   279  GLU279      0.1160
     91  CD        38.1360   16.2410   48.7580 C.2   279  GLU279      0.3649
     92  OE1       37.2600   16.0470   47.8820 O.co2 279  GLU279     -0.2457
     93  OE2       38.0040   17.0630   49.6940 O.co2 279  GLU279     -0.2457
     94  N         40.4540   11.1680   46.2450 N.3   281  ARG281     -0.1245
     95  CA        39.2370   10.9180   45.4750 C.3   281  ARG281      0.1563
     96  C         38.8230    9.4590   45.5690 C.2   281  ARG281      0.2260
     97  O         39.5190    8.6350   46.1680 O.2   281  ARG281     -0.2867
     98  CB        39.4360   11.2450   44.0010 C.3   281  ARG281      0.0307
     99  CG        39.9830   12.6090   43.7350 C.3   281  ARG281      0.0489
    100  CD        40.2200   12.7790   42.2590 C.3   281  ARG281      0.2205
    101  NE        41.2100   13.8210   42.0140 N.pl3 281  ARG281     -0.0865
    102  CZ        41.3970   14.4070   40.8340 C.cat 281  ARG281      0.5346
    103  NH1       40.6510   14.0450   39.7930 N.pl3 281  ARG281      0.1354
    104  NH2       42.3210   15.3480   40.6940 N.pl3 281  ARG281      0.1354
    105  N         42.6940   15.5480   45.1170 N.3   287  SER287     -0.1217
    106  CA        42.2040   16.8740   44.7150 C.3   287  SER287      0.1889
    107  C         42.2040   17.8940   45.8560 C.2   287  SER287      0.2288
    108  O         42.3480   17.5390   47.0230 O.2   287  SER287     -0.2866
    109  CB        40.7980   16.7540   44.1400 C.3   287  SER287      0.2089
    110  OG        39.9090   16.3310   45.1480 O.3   287  SER287     -0.2183
@<TRIPOS>BOND
     1    13    12    1
     2    13    14    1
     3    15    14    2
     4    14    16   am
     5    19    18    2
     6    27    26    1
     7    56    54    1
     8    23    24    1
     9    23    26    1
    10    23    22    1
    11    24    25    2
    12    26    28    1
    13    18    22   am
    14    18    17    1
    15    16    17    1
    16    17    20    1
    17    54    53    1
    18    20    21    1
    19    53    55    1
    20    53    50    1
    21    50    51    1
    22    50    49    1
    23    29    30    1
    24    52    51    2
    25    49    43   am
    26    30    31    1
    27    32    31    2
    28    43    44    2
    29    43    42    1
    30    31    33   am
    31   103   102    1
    32    45    42    1
    33    45    46    1
    34    42    41    1
    35    74    73   ar
    36    33    34    1
    37   104   102    1
    38    41    35   am
    39   102   101    2
    40    79    78    2
    41    47    46   ar
    42    35    36    2
    43    35    34    1
    44    57    58    1
    45    46    48   ar
    46    11     9    1
    47    10     9    1
    48    59    60    2
    49    59    58    1
    50    34    37    1
    51    78    77    1
    52    75    73   ar
    53     9     8    2
    54    73    72    1
    55   101   100    1
    56    58    61    1
    57     8     7    1
    58   100    99    1
    59     7     6    1
    60    68    69    1
    61    69    72    1
    62    69    70    1
    63    61    62    1
    64    37    38    1
    65    83    82   ar
    66    77    80    1
    67    77    76    1
    68    81    80    1
    69    81    82    1
    70    39    38    2
    71    38    40   am
    72     6     5    1
    73    82    84   ar
    74    99    98    1
    75     4     3    2
    76    62    63    1
    77    98    95    1
    78     5     2    1
    79   109   106    1
    80   109   110    1
    81    70    71    2
    82     2     3    1
    83     2     1    1
    84    63    64    1
    85   106   105    1
    86   106   107    1
    87    66    65    1
    88    64    65    2
    89    65    67    1
    90    95    96    1
    91    95    94    1
    92    96    97    2
    93   107   108    2
    94    88    87    2
    95    92    91   ar
    96    90    91    1
    97    90    89    1
    98    91    93   ar
    99    87    86    1
   100    85    86    1
   101    86    89    1
