@<TRIPOS>MOLECULE
tmp/1kp3A00.pdb
 206 195 0 0 0
SMALL
GASTEIGER

@<TRIPOS>ATOM
      1  N         20.6000   14.5580   33.3490 N.3    16  ALA16      -0.1231
      2  CA        20.5550   15.4040   34.5330 C.3    16  ALA16       0.1694
      3  C         20.9800   16.7530   33.9800 C.2    16  ALA16       0.2592
      4  O         22.1450   16.9490   33.6520 O.2    16  ALA16      -0.2718
      5  CB        21.5600   14.8900   35.5790 C.3    16  ALA16       0.0304
      6  N         20.0250   17.6720   33.8580 N.am   17  PHE17      -0.1962
      7  CA        20.2710   18.9810   33.2570 C.3    17  PHE17       0.1771
      8  C         20.3880   20.1070   34.2760 C.2    17  PHE17       0.2620
      9  O         19.4160   20.4440   34.9510 O.2    17  PHE17      -0.2715
     10  CB        19.1290   19.2920   32.2870 C.3    17  PHE17       0.0574
     11  CG        19.3860   20.4680   31.3820 C.ar   17  PHE17      -0.0200
     12  CD1       20.1620   20.3210   30.2340 C.ar   17  PHE17      -0.0042
     13  CD2       18.8230   21.7080   31.6580 C.ar   17  PHE17      -0.0042
     14  CE1       20.3700   21.3860   29.3740 C.ar   17  PHE17      -0.0003
     15  CE2       19.0240   22.7890   30.8020 C.ar   17  PHE17      -0.0003
     16  CZ        19.7990   22.6270   29.6550 C.ar   17  PHE17      -0.0000
     17  N         21.5720   20.7010   34.3780 N.am   18  SER18      -0.1950
     18  CA        21.7860   21.7850   35.3360 C.3    18  SER18       0.1924
     19  C         21.6260   23.1620   34.7110 C.2    18  SER18       0.2314
     20  O         21.4800   24.1490   35.4200 O.2    18  SER18      -0.2863
     21  CB        23.1820   21.6860   35.9480 C.3    18  SER18       0.2116
     22  OG        24.1660   21.8590   34.9510 O.3    18  SER18      -0.2180
     23  N         23.9610   24.5660   32.9070 N.3    20  GLY20      -0.1210
     24  CA        25.2890   25.0810   32.6290 C.3    20  GLY20       0.1956
     25  C         25.6260   24.8860   31.1580 C.2    20  GLY20       0.2612
     26  O         24.8120   24.3350   30.4070 O.2    20  GLY20      -0.2717
     27  N         26.8130   25.3260   30.7350 N.am   21  LEU21      -0.1965
     28  CA        27.1990   25.1940   29.3310 C.3    21  LEU21       0.1728
     29  C         27.4000   23.7380   28.9230 C.2    21  LEU21       0.2616
     30  O         27.0530   23.3510   27.8070 O.2    21  LEU21      -0.2715
     31  CB        28.4740   25.9970   29.0300 C.3    21  LEU21       0.0311
     32  CG        29.0390   25.8090   27.6110 C.3    21  LEU21       0.0022
     33  CD1       28.0020   26.2280   26.5860 C.3    21  LEU21       0.0001
     34  CD2       30.3060   26.6130   27.4380 C.3    21  LEU21       0.0001
     35  N         27.9490   22.9290   29.8230 N.am   22  ASP22      -0.1957
     36  CA        28.1690   21.5250   29.5130 C.3    22  ASP22       0.1840
     37  C         26.8830   20.8100   29.1050 C.2    22  ASP22       0.2622
     38  O         26.8030   20.2540   28.0060 O.2    22  ASP22      -0.2715
     39  CB        28.7920   20.7910   30.7020 C.3    22  ASP22       0.1450
     40  CG        30.2410   21.1680   30.9280 C.2    22  ASP22       0.3671
     41  OD1       30.5200   22.3550   31.2130 O.co2  22  ASP22      -0.2456
     42  OD2       31.1040   20.2690   30.8240 O.co2  22  ASP22      -0.2456
     43  N         25.8730   20.8210   29.9700 N.am   23  THR23      -0.1951
     44  CA        24.6390   20.1210   29.6350 C.3    23  THR23       0.1897
     45  C         23.7700   20.8240   28.6020 C.2    23  THR23       0.2313
     46  O         22.9660   20.1740   27.9260 O.2    23  THR23      -0.2863
     47  CB        23.8010   19.8010   30.8930 C.3    23  THR23       0.1794
     48  OG1       23.5070   21.0080   31.6020 O.3    23  THR23      -0.2208
     49  CG2       24.5710   18.8430   31.8080 C.3    23  THR23       0.0378
     50  N         16.0620   16.6340   32.9300 N.3    40  TYR40      -0.1227
     51  CA        15.5670   16.5020   34.2950 C.3    40  TYR40       0.1736
     52  C         16.4710   17.3700   35.1530 C.2    40  TYR40       0.2596
     53  O         17.6850   17.1540   35.2190 O.2    40  TYR40      -0.2718
     54  CB        15.6030   15.0450   34.7540 C.3    40  TYR40       0.0548
     55  CG        14.6580   14.1540   33.9770 C.ar   40  TYR40      -0.0200
     56  CD1       15.0430   13.5900   32.7590 C.ar   40  TYR40      -0.0009
     57  CD2       13.3590   13.9160   34.4310 C.ar   40  TYR40      -0.0009
     58  CE1       14.1680   12.8220   32.0080 C.ar   40  TYR40       0.0417
     59  CE2       12.4700   13.1430   33.6790 C.ar   40  TYR40       0.0417
     60  CZ        12.8850   12.6040   32.4680 C.ar   40  TYR40       0.1957
     61  OH        12.0100   11.8730   31.6970 O.3    40  TYR40      -0.2866
     62  N         15.8700   18.3680   35.7900 N.am   41  THR41      -0.1939
     63  CA        16.5990   19.3100   36.6250 C.3    41  THR41       0.2028
     64  C         16.1490   19.1770   38.0730 C.2    41  THR41       0.2642
     65  O         14.9590   19.0390   38.3610 O.2    41  THR41      -0.2714
     66  CB        16.3650   20.7560   36.1450 C.3    41  THR41       0.1808
     67  OG1       16.8230   20.8880   34.7950 O.3    41  THR41      -0.2208
     68  CG2       17.1050   21.7570   37.0290 C.3    41  THR41       0.0379
     69  N         17.1070   19.2280   38.9880 N.am   42  ALA42      -0.1977
     70  CA        16.7810   19.0940   40.3970 C.3    42  ALA42       0.1597
     71  C         16.8380   20.4280   41.1070 C.2    42  ALA42       0.2287
     72  O         17.7750   21.1940   40.9060 O.2    42  ALA42      -0.2864
     73  CB        17.7530   18.1230   41.0640 C.3    42  ALA42       0.0319
     74  N         17.7880   22.0360   44.1650 N.3    44  LEU44      -0.1245
     75  CA        18.6020   21.6850   45.3130 C.3    44  LEU44       0.1561
     76  C         18.8290   22.8710   46.2470 C.2    44  LEU44       0.2260
     77  O         19.6670   22.8000   47.1440 O.2    44  LEU44      -0.2867
     78  CB        19.9430   21.1270   44.8220 C.3    44  LEU44       0.0270
     79  CG        19.8050   19.7850   44.0950 C.3    44  LEU44       0.0019
     80  CD1       21.0420   19.4950   43.2680 C.3    44  LEU44       0.0001
     81  CD2       19.5680   18.6850   45.1140 C.3    44  LEU44       0.0001
     82  N         20.0370   25.7530   45.4590 N.3    46  GLN46      -0.1245
     83  CA        21.3260   26.3520   45.1540 C.3    46  GLN46       0.1566
     84  C         21.3020   27.8100   45.6010 C.2    46  GLN46       0.2260
     85  O         20.4110   28.5620   45.2170 O.2    46  GLN46      -0.2867
     86  CB        21.5830   26.2510   43.6610 C.3    46  GLN46       0.0367
     87  CG        23.0130   26.4360   43.2710 C.3    46  GLN46       0.0905
     88  CD        23.2460   26.1100   41.8070 C.2    46  GLN46       0.2608
     89  OE1       23.1790   26.9890   40.9450 O.2    46  GLN46      -0.2717
     90  NE2       23.5030   24.8330   41.5160 N.am   46  GLN46      -0.0878
     91  N         15.0620   28.6420   39.0380 N.3    52  TYR52      -0.1241
     92  CA        15.0120   27.2600   38.6120 C.3    52  TYR52       0.1605
     93  C         14.0010   27.0200   37.4900 C.2    52  TYR52       0.2264
     94  O         14.2440   26.2030   36.6060 O.2    52  TYR52      -0.2867
     95  CB        14.7040   26.3560   39.8110 C.3    52  TYR52       0.0534
     96  CG        15.9290   25.9150   40.5970 C.ar   52  TYR52      -0.0201
     97  CD1       16.1470   26.3560   41.9050 C.ar   52  TYR52      -0.0009
     98  CD2       16.8520   25.0240   40.0380 C.ar   52  TYR52      -0.0009
     99  CE1       17.2580   25.9060   42.6480 C.ar   52  TYR52       0.0417
    100  CE2       17.9630   24.5730   40.7600 C.ar   52  TYR52       0.0417
    101  CZ        18.1600   25.0110   42.0660 C.ar   52  TYR52       0.1957
    102  OH        19.2380   24.5290   42.7830 O.3    52  TYR52      -0.2866
    103  N         15.4000   26.9970   33.9130 N.3    55  ILE55      -0.1245
    104  CA        16.2550   25.9170   33.4200 C.3    55  ILE55       0.1561
    105  C         15.5140   24.9410   32.5160 C.2    55  ILE55       0.2260
    106  O         16.0090   24.5870   31.4490 O.2    55  ILE55      -0.2867
    107  CB        16.9530   25.1880   34.5860 C.3    55  ILE55       0.0252
    108  CG1       17.7300   26.2190   35.4220 C.3    55  ILE55       0.0019
    109  CG2       17.9350   24.1630   34.0530 C.3    55  ILE55       0.0019
    110  CD1       18.5520   25.6470   36.5820 C.3    55  ILE55       0.0001
    111  N         24.4500   14.4870   45.4280 N.3   106  ARG106     -0.1245
    112  CA        24.3850   13.4340   44.4010 C.3   106  ARG106      0.1563
    113  C         23.5290   12.2370   44.8110 C.2   106  ARG106      0.2260
    114  O         22.9060   11.6060   43.9680 O.2   106  ARG106     -0.2867
    115  CB        25.7820   12.9100   44.0340 C.3   106  ARG106      0.0307
    116  CG        26.8140   13.9600   43.6440 C.3   106  ARG106      0.0489
    117  CD        26.3220   14.9700   42.5970 C.3   106  ARG106      0.2205
    118  NE        27.4220   15.8690   42.2120 N.pl3 106  ARG106     -0.0865
    119  CZ        27.2690   17.0730   41.6680 C.cat 106  ARG106      0.5346
    120  NH1       26.0510   17.5550   41.4370 N.pl3 106  ARG106      0.1354
    121  NH2       28.3370   17.7910   41.3490 N.pl3 106  ARG106      0.1354
    122  N         20.0490   13.5850   44.2330 N.3   109  THR109     -0.1218
    123  CA        19.8340   13.8930   42.8180 C.3   109  THR109      0.1862
    124  C         19.8450   12.6440   41.9350 C.2   109  THR109      0.2287
    125  O         18.9470   12.4480   41.1010 O.2   109  THR109     -0.2866
    126  CB        20.9040   14.8830   42.2990 C.3   109  THR109      0.1770
    127  OG1       20.8520   16.0850   43.0750 O.3   109  THR109     -0.2211
    128  CG2       20.6410   15.2470   40.8550 C.3   109  THR109      0.0375
    129  N         16.0500   11.8910   40.3390 N.3   113  LEU113     -0.1245
    130  CA        15.8930   12.1810   38.9150 C.3   113  LEU113      0.1561
    131  C         15.6430   10.9310   38.0780 C.2   113  LEU113      0.2260
    132  O         14.8850   10.9770   37.1010 O.2   113  LEU113     -0.2867
    133  CB        17.1080   12.9270   38.3540 C.3   113  LEU113      0.0270
    134  CG        17.4040   14.3070   38.9380 C.3   113  LEU113      0.0019
    135  CD1       18.4330   15.0060   38.0440 C.3   113  LEU113      0.0001
    136  CD2       16.1350   15.1380   39.0270 C.3   113  LEU113      0.0001
    137  N         24.5770   12.2380   32.5030 N.3   127  ASP127     -0.1225
    138  CA        24.7760   13.5330   33.1440 C.3   127  ASP127      0.1805
    139  C         25.9910   14.1360   32.4750 C.2   127  ASP127      0.2598
    140  O         26.5830   13.5020   31.6060 O.2   127  ASP127     -0.2718
    141  CB        25.0230   13.3540   34.6530 C.3   127  ASP127      0.1424
    142  CG        26.1420   12.3660   34.9500 C.2   127  ASP127      0.3668
    143  OD1       27.3300   12.7670   34.8910 O.co2 127  ASP127     -0.2456
    144  OD2       25.8250   11.1900   35.2280 O.co2 127  ASP127     -0.2456
    145  N         26.3730   15.3420   32.8810 N.am  128  GLY128     -0.1942
    146  CA        27.5280   15.9800   32.2750 C.3   128  GLY128      0.2014
    147  C         28.8140   15.9590   33.0850 C.2   128  GLY128      0.2640
    148  O         29.6950   16.7770   32.8320 O.2   128  GLY128     -0.2714
    149  N         28.9320   15.0450   34.0480 N.am  129  SER129     -0.1935
    150  CA        30.1390   14.9260   34.8820 C.3   129  SER129      0.2055
    151  C         31.3320   14.5080   34.0350 C.2   129  SER129      0.2643
    152  O         31.1860   13.6980   33.1340 O.2   129  SER129     -0.2714
    153  CB        29.9570   13.8520   35.9670 C.3   129  SER129      0.2130
    154  OG        28.8640   14.1540   36.8180 O.3   129  SER129     -0.2179
    155  N         32.5140   15.0360   34.3450 N.am  130  THR130     -0.1950
    156  CA        33.7130   14.6710   33.5990 C.3   130  THR130      0.1897
    157  C         34.0870   13.2210   33.9160 C.2   130  THR130      0.2313
    158  O         33.7700   12.7140   34.9830 O.2   130  THR130     -0.2863
    159  CB        34.9100   15.5840   33.9700 C.3   130  THR130      0.1794
    160  OG1       36.0540   15.2110   33.1890 O.3   130  THR130     -0.2208
    161  CG2       35.2590   15.4440   35.4350 C.3   130  THR130      0.0378
    162  N         32.0500   12.4960   40.7450 N.3   135  ASP135     -0.1239
    163  CA        30.6440   12.5740   40.3890 C.3   135  ASP135      0.1674
    164  C         30.1430   11.6180   39.3210 C.2   135  ASP135      0.2266
    165  O         29.0580   11.0570   39.4690 O.2   135  ASP135     -0.2867
    166  CB        30.2820   14.0160   40.0400 C.3   135  ASP135      0.1410
    167  CG        30.3210   14.9160   41.2540 C.2   135  ASP135      0.3668
    168  OD1       30.5980   16.1180   41.0950 O.co2 135  ASP135     -0.2456
    169  OD2       30.0710   14.4200   42.3740 O.co2 135  ASP135     -0.2456
    170  N         26.8780    9.3690   40.3730 N.3   139  PHE139     -0.1241
    171  CA        25.6460    9.2920   39.5820 C.3   139  PHE139      0.1605
    172  C         25.4320    7.8840   39.0510 C.2   139  PHE139      0.2264
    173  O         24.3050    7.3770   39.0310 O.2   139  PHE139     -0.2867
    174  CB        25.6970   10.2560   38.3840 C.3   139  PHE139      0.0534
    175  CG        25.3300   11.6660   38.7250 C.ar  139  PHE139     -0.0203
    176  CD1       26.2730   12.6900   38.6330 C.ar  139  PHE139     -0.0042
    177  CD2       24.0320   11.9760   39.1290 C.ar  139  PHE139     -0.0042
    178  CE1       25.9210   14.0070   38.9340 C.ar  139  PHE139     -0.0003
    179  CE2       23.6720   13.2780   39.4360 C.ar  139  PHE139     -0.0003
    180  CZ        24.6200   14.3020   39.3360 C.ar  139  PHE139     -0.0000
    181  N         35.5100   24.3710   26.3840 N.3   168  ARG168     -0.1245
    182  CA        34.4380   25.3020   26.7150 C.3   168  ARG168      0.1563
    183  C         34.2190   26.2260   25.5220 C.2   168  ARG168      0.2260
    184  O         33.0920   26.6340   25.2280 O.2   168  ARG168     -0.2867
    185  CB        34.8250   26.1280   27.9420 C.3   168  ARG168      0.0307
    186  CG        35.2100   25.2900   29.1580 C.3   168  ARG168      0.0489
    187  CD        33.9990   24.8300   29.9550 C.3   168  ARG168      0.2205
    188  NE        33.3340   25.9500   30.6180 N.pl3 168  ARG168     -0.0865
    189  CZ        32.3420   25.8240   31.4960 C.cat 168  ARG168      0.5346
    190  NH1       31.8890   24.6200   31.8290 N.pl3 168  ARG168      0.1354
    191  NH2       31.7990   26.9040   32.0420 N.pl3 168  ARG168      0.1354
    192  N         32.4920   25.9380   40.6340 N.3   192  THR192     -0.1203
    193  CA        31.6880   25.8620   41.8420 C.3   192  THR192      0.1994
    194  C         30.4800   24.9530   41.7210 C.2   192  THR192      0.2617
    195  O         29.7480   24.9990   40.7300 O.2   192  THR192     -0.2717
    196  CB        31.1950   27.2850   42.2490 C.3   192  THR192      0.1784
    197  OG1       32.3090   28.0630   42.7010 O.3   192  THR192     -0.2211
    198  CG2       30.1330   27.2170   43.3650 C.3   192  THR192      0.0376
    199  N         30.2970   24.1260   42.7460 N.am  193  ASP193     -0.1973
    200  CA        29.1720   23.2040   42.8600 C.3   193  ASP193      0.1709
    201  C         28.4920   23.6180   44.1580 C.2   193  ASP193      0.2293
    202  O         29.1580   23.8280   45.1790 O.2   193  ASP193     -0.2864
    203  CB        29.6540   21.7650   43.0000 C.3   193  ASP193      0.1436
    204  CG        30.0240   21.1350   41.6700 C.2   193  ASP193      0.3671
    205  OD1       29.9650   21.8380   40.6310 O.co2 193  ASP193     -0.2456
    206  OD2       30.3720   19.9290   41.6670 O.co2 193  ASP193     -0.2456
@<TRIPOS>BOND
     1   184   183    2
     2   183   182    1
     3   181   182    1
     4    33    32    1
     5   182   185    1
     6    34    32    1
     7    32    31    1
     8    30    29    2
     9    46    45    2
    10   185   186    1
    11    38    37    2
    12    45    44    1
    13    29    28    1
    14    29    35   am
    15    31    28    1
    16    37    36    1
    17    37    43   am
    18   186   187    1
    19    28    27    1
    20    14    16   ar
    21    14    12   ar
    22    36    35    1
    23    36    39    1
    24    44    43    1
    25    44    47    1
    26    16    15   ar
    27   187   188    1
    28    12    11   ar
    29    26    25    2
    30   188   189    2
    31    39    40    1
    32    27    25   am
    33    15    13   ar
    34    42    40   ar
    35    47    48    1
    36    47    49    1
    37    40    41   ar
    38    25    24    1
    39    11    13   ar
    40    11    10    1
    41   106   105    2
    42   189   190    1
    43   189   191    1
    44   140   139    2
    45    61    60    1
    46    58    60   ar
    47    58    56   ar
    48   146   145    1
    49   146   147    1
    50    10     7    1
    51    60    59   ar
    52   139   145   am
    53   139   138    1
    54   137   138    1
    55   105   104    1
    56    24    23    1
    57    56    55   ar
    58   148   147    2
    59    50    51    1
    60   147   149   am
    61   152   151    2
    62   138   141    1
    63   160   159    1
    64     7     6    1
    65     7     8    1
    66     1     2    1
    67   104   103    1
    68   104   107    1
    69   156   157    1
    70   156   159    1
    71   156   155    1
    72     4     3    2
    73    59    57   ar
    74     6     3   am
    75   157   158    2
    76   159   161    1
    77    55    57   ar
    78    55    54    1
    79     3     2    1
    80   151   155   am
    81   151   150    1
    82   149   150    1
    83   109   107    1
    84     8    17   am
    85     8     9    2
    86    51    54    1
    87    51    52    1
    88    17    18    1
    89     2     5    1
    90   107   108    1
    91   141   142    1
    92    19    18    1
    93    19    20    2
    94    67    66    1
    95   150   153    1
    96   143   142   ar
    97   142   144   ar
    98    22    21    1
    99    52    53    2
   100    52    62   am
   101    18    21    1
   102   108   110    1
   103    62    63    1
   104   153   154    1
   105    66    63    1
   106    66    68    1
   107    94    93    2
   108    63    64    1
   109   132   131    2
   110    93    92    1
   111   135   134    1
   112    64    65    2
   113    64    69   am
   114   131   130    1
   115   133   130    1
   116   133   134    1
   117   174   175    1
   118   174   171    1
   119    92    91    1
   120    92    95    1
   121   176   175   ar
   122   176   178   ar
   123   175   177   ar
   124   130   129    1
   125   178   180   ar
   126   134   136    1
   127    69    70    1
   128   173   172    2
   129   172   171    1
   130   177   179   ar
   131   164   165    2
   132   164   163    1
   133   180   179   ar
   134   171   170    1
   135    95    96    1
   136    98    96   ar
   137    98   100   ar
   138   166   163    1
   139   166   167    1
   140   163   162    1
   141    70    73    1
   142    70    71    1
   143    96    97   ar
   144   205   204   ar
   145   192   193    1
   146   195   194    2
   147   100   101   ar
   148   128   126    1
   149    72    71    2
   150    89    88    2
   151   168   167   ar
   152   125   124    2
   153   167   169   ar
   154   121   119    1
   155   120   119    1
   156    90    88   am
   157   206   204   ar
   158   119   118    2
   159   204   203    1
   160   194   193    1
   161   194   199   am
   162    88    87    1
   163   193   196    1
   164    97    99   ar
   165   124   123    1
   166   101    99   ar
   167   101   102    1
   168   118   117    1
   169   196   197    1
   170   196   198    1
   171   126   123    1
   172   126   127    1
   173   117   116    1
   174   199   200    1
   175   123   122    1
   176   200   203    1
   177   200   201    1
   178    80    79    1
   179    87    86    1
   180   116   115    1
   181    86    83    1
   182   114   113    2
   183   115   112    1
   184    79    78    1
   185    79    81    1
   186   201   202    2
   187    74    75    1
   188   112   113    1
   189   112   111    1
   190    78    75    1
   191    83    82    1
   192    83    84    1
   193    85    84    2
   194    75    76    1
   195    76    77    2
