@<TRIPOS>MOLECULE
tmp/1kp3A01.pdb
 122 114 0 0 0
SMALL
GASTEIGER

@<TRIPOS>ATOM
      1  N         35.0650   18.9110   55.9900 N.3    98  TYR98      -0.1241
      2  CA        34.3050   19.0810   54.7690 C.3    98  TYR98       0.1605
      3  C         33.0030   18.3700   55.1310 C.2    98  TYR98       0.2264
      4  O         33.0330   17.2080   55.5270 O.2    98  TYR98      -0.2867
      5  CB        34.9590   18.3410   53.6000 C.3    98  TYR98       0.0534
      6  CG        34.0500   18.1780   52.3970 C.ar   98  TYR98      -0.0201
      7  CD1       33.1900   19.2160   51.9940 C.ar   98  TYR98      -0.0009
      8  CD2       34.1120   17.0370   51.6040 C.ar   98  TYR98      -0.0009
      9  CE1       32.4290   19.1170   50.8300 C.ar   98  TYR98       0.0417
     10  CE2       33.3470   16.9250   50.4270 C.ar   98  TYR98       0.0417
     11  CZ        32.5140   17.9670   50.0520 C.ar   98  TYR98       0.1957
     12  OH        31.7580   17.8620   48.9070 O.3    98  TYR98      -0.2866
     13  N         28.4700   17.8850   48.4720 N.3   102  THR102     -0.1204
     14  CA        28.2290   17.4440   47.1130 C.3   102  THR102      0.1979
     15  C         27.7950   15.9640   47.1530 C.2   102  THR102      0.2459
     16  O         26.8610   15.5710   46.4500 O.2   102  THR102     -0.2732
     17  CB        29.4610   17.6480   46.2270 C.3   102  THR102      0.1783
     18  OG1       29.6340   19.0520   45.9880 O.3   102  THR102     -0.2211
     19  CG2       29.2810   16.9690   44.9000 C.3   102  THR102      0.0376
     20  N         28.4830   15.1230   47.9540 N.am  103  PRO103     -0.2728
     21  CA        28.0850   13.7060   48.0340 C.3   103  PRO103      0.1401
     22  C         26.6030   13.5780   48.4460 C.2   103  PRO103      0.2269
     23  O         25.8880   12.7320   47.9270 O.2   103  PRO103     -0.2865
     24  CB        29.0310   13.1390   49.0930 C.3   103  PRO103      0.0296
     25  CG        30.3250   13.8680   48.7600 C.3   103  PRO103      0.0237
     26  CD        29.8460   15.3160   48.5020 C.3   103  PRO103      0.0939
     27  N         34.8500   12.2450   40.6370 N.3   134  ASN134     -0.1225
     28  CA        34.0630   11.4170   41.5400 C.3   134  ASN134      0.1785
     29  C         32.6020   11.3490   41.1270 C.2   134  ASN134      0.2597
     30  O         31.9880   10.2810   41.1520 O.2   134  ASN134     -0.2718
     31  CB        34.0970   11.9760   42.9660 C.3   134  ASN134      0.1169
     32  CG        35.4920   11.9850   43.5820 C.2   134  ASN134      0.2627
     33  OD1       36.2670   11.0440   43.4130 O.2   134  ASN134     -0.2716
     34  ND2       35.7960   13.0400   44.3390 N.am  134  ASN134     -0.0877
     35  N         32.0500   12.4960   40.7450 N.am  135  ASP135     -0.1974
     36  CA        30.6440   12.5740   40.3890 C.3   135  ASP135      0.1709
     37  C         30.1430   11.6180   39.3210 C.2   135  ASP135      0.2293
     38  O         29.0580   11.0570   39.4690 O.2   135  ASP135     -0.2864
     39  CB        30.2820   14.0160   40.0400 C.3   135  ASP135      0.1436
     40  CG        30.3210   14.9160   41.2540 C.2   135  ASP135      0.3671
     41  OD1       30.5980   16.1180   41.0950 O.co2 135  ASP135     -0.2456
     42  OD2       30.0710   14.4200   42.3740 O.co2 135  ASP135     -0.2456
     43  N         29.4630    8.6330   41.2310 N.3   138  ARG138     -0.1245
     44  CA        28.3710    8.7280   42.2000 C.3   138  ARG138      0.1563
     45  C         27.0480    8.5980   41.4480 C.2   138  ARG138      0.2260
     46  O         26.1930    7.8050   41.8340 O.2   138  ARG138     -0.2867
     47  CB        28.4070   10.0600   42.9560 C.3   138  ARG138      0.0307
     48  CG        29.5330   10.1570   43.9740 C.3   138  ARG138      0.0489
     49  CD        29.7310   11.5920   44.4510 C.3   138  ARG138      0.2205
     50  NE        30.8870   11.6840   45.3350 N.pl3 138  ARG138     -0.0865
     51  CZ        31.6680   12.7550   45.4570 C.cat 138  ARG138      0.5346
     52  NH1       31.4300   13.8470   44.7430 N.pl3 138  ARG138      0.1354
     53  NH2       32.6820   12.7410   46.3170 N.pl3 138  ARG138      0.1354
     54  N         35.9310   26.4260   39.6840 N.3   191  SER191     -0.1217
     55  CA        34.5670   26.0220   39.3610 C.3   191  SER191      0.1889
     56  C         33.8140   25.8640   40.6880 C.2   191  SER191      0.2288
     57  O         34.4220   25.6600   41.7450 O.2   191  SER191     -0.2866
     58  CB        34.5520   24.7160   38.5570 C.3   191  SER191      0.2089
     59  OG        34.8170   23.5980   39.3770 O.3   191  SER191     -0.2183
     60  N         30.2970   24.1260   42.7460 N.3   193  ASP193     -0.1239
     61  CA        29.1720   23.2040   42.8600 C.3   193  ASP193      0.1674
     62  C         28.4920   23.6180   44.1580 C.2   193  ASP193      0.2266
     63  O         29.1580   23.8280   45.1790 O.2   193  ASP193     -0.2867
     64  CB        29.6540   21.7650   43.0000 C.3   193  ASP193      0.1410
     65  CG        30.0240   21.1350   41.6700 C.2   193  ASP193      0.3668
     66  OD1       29.9650   21.8380   40.6310 O.co2 193  ASP193     -0.2456
     67  OD2       30.3720   19.9290   41.6670 O.co2 193  ASP193     -0.2456
     68  N         31.0210   24.0520   47.0750 N.3   200  THR200     -0.1218
     69  CA        32.3910   23.5720   46.9290 C.3   200  THR200      0.1862
     70  C         33.0790   24.3200   45.8030 C.2   200  THR200      0.2287
     71  O         32.4900   24.5360   44.7500 O.2   200  THR200     -0.2866
     72  CB        32.4520   22.1040   46.5670 C.3   200  THR200      0.1770
     73  OG1       31.8650   21.9330   45.2740 O.3   200  THR200     -0.2211
     74  CG2       31.7090   21.2510   47.5950 C.3   200  THR200      0.0375
     75  N         36.6630   24.3570   43.4810 N.3   202  GLU202     -0.1245
     76  CA        37.8840   23.6680   43.0940 C.3   202  GLU202      0.1567
     77  C         38.2500   23.8610   41.6290 C.2   202  GLU202      0.2260
     78  O         37.5680   24.5650   40.8920 O.2   202  GLU202     -0.2867
     79  CB        37.8110   22.1720   43.4190 C.3   202  GLU202      0.0388
     80  CG        36.5100   21.4720   43.1040 C.3   202  GLU202      0.1160
     81  CD        36.4990   20.0460   43.6810 C.2   202  GLU202      0.3649
     82  OE1       37.1020   19.1280   43.0670 O.co2 202  GLU202     -0.2457
     83  OE2       35.9110   19.8540   44.7690 O.co2 202  GLU202     -0.2457
     84  N         42.2300   16.2360   49.5740 N.3   279  GLU279     -0.1245
     85  CA        41.5810   14.9730   49.8860 C.3   279  GLU279      0.1567
     86  C         41.8230   13.8980   48.8420 C.2   279  GLU279      0.2260
     87  O         42.2280   14.1940   47.7240 O.2   279  GLU279     -0.2867
     88  CB        40.0820   15.2140   50.0120 C.3   279  GLU279      0.0388
     89  CG        39.4290   15.4510   48.6670 C.3   279  GLU279      0.1160
     90  CD        38.1360   16.2410   48.7580 C.2   279  GLU279      0.3649
     91  OE1       37.2600   16.0470   47.8820 O.co2 279  GLU279     -0.2457
     92  OE2       38.0040   17.0630   49.6940 O.co2 279  GLU279     -0.2457
     93  N         42.6940   15.5480   45.1170 N.3   287  SER287     -0.1217
     94  CA        42.2040   16.8740   44.7150 C.3   287  SER287      0.1889
     95  C         42.2040   17.8940   45.8560 C.2   287  SER287      0.2288
     96  O         42.3480   17.5390   47.0230 O.2   287  SER287     -0.2866
     97  CB        40.7980   16.7540   44.1400 C.3   287  SER287      0.2089
     98  OG        39.9090   16.3310   45.1480 O.3   287  SER287     -0.2183
     99  N         35.6630   24.8220   50.7850 N.3   291  TYR291     -0.1241
    100  CA        34.2470   24.5880   51.0300 C.3   291  TYR291      0.1605
    101  C         33.5080   25.5030   51.9700 C.2   291  TYR291      0.2264
    102  O         34.0840   26.0580   52.8920 O.2   291  TYR291     -0.2867
    103  CB        34.0780   23.1510   51.5420 C.3   291  TYR291      0.0534
    104  CG        34.8220   22.1190   50.7270 C.ar  291  TYR291     -0.0201
    105  CD1       35.9290   21.4450   51.2410 C.ar  291  TYR291     -0.0009
    106  CD2       34.4090   21.8040   49.4380 C.ar  291  TYR291     -0.0009
    107  CE1       36.6020   20.4680   50.4750 C.ar  291  TYR291      0.0417
    108  CE2       35.0700   20.8470   48.6720 C.ar  291  TYR291      0.0417
    109  CZ        36.1560   20.1830   49.1860 C.ar  291  TYR291      0.1957
    110  OH        36.7800   19.2390   48.3830 O.3   291  TYR291     -0.2866
    111  N         30.9830    9.8290   50.7860 N.3   331  TYR331     -0.1241
    112  CA        31.8580   10.4320   49.7760 C.3   331  TYR331      0.1605
    113  C         32.0230    9.5280   48.5310 C.2   331  TYR331      0.2264
    114  O         32.0910   10.0160   47.3930 O.2   331  TYR331     -0.2867
    115  CB        33.2230   10.7020   50.4140 C.3   331  TYR331      0.0534
    116  CG        34.2060   11.4050   49.5090 C.ar  331  TYR331     -0.0201
    117  CD1       34.3130   12.7960   49.5110 C.ar  331  TYR331     -0.0009
    118  CD2       35.0480   10.6720   48.6600 C.ar  331  TYR331     -0.0009
    119  CE1       35.2400   13.4540   48.6920 C.ar  331  TYR331      0.0417
    120  CE2       35.9810   11.3160   47.8340 C.ar  331  TYR331      0.0417
    121  CZ        36.0670   12.7020   47.8600 C.ar  331  TYR331      0.1957
    122  OH        36.9830   13.3270   47.0620 O.3   331  TYR331     -0.2866
@<TRIPOS>BOND
     1    58    55    1
     2    58    59    1
     3    37    38    2
     4    37    36    1
     5    55    54    1
     6    55    56    1
     7    39    36    1
     8    39    40    1
     9    36    35    1
    10    66    65   ar
    11    27    28    1
    12    56    57    2
    13    35    29   am
    14    78    77    2
    15    41    40   ar
    16    29    30    2
    17    29    28    1
    18    43    44    1
    19    40    42   ar
    20    45    46    2
    21    45    44    1
    22    28    31    1
    23    77    76    1
    24    67    65   ar
    25    65    64    1
    26    44    47    1
    27    60    61    1
    28    61    64    1
    29    61    62    1
    30    47    48    1
    31    31    32    1
    32    82    81   ar
    33    76    79    1
    34    76    75    1
    35    80    79    1
    36    80    81    1
    37    33    32    2
    38    32    34   am
    39    81    83   ar
    40    48    49    1
    41    97    94    1
    42    97    98    1
    43    62    63    2
    44    49    50    1
    45    94    93    1
    46    94    95    1
    47    52    51    1
    48    71    70    2
    49    19    17    1
    50    73    72    1
    51    50    51    2
    52    51    53    1
    53    70    69    1
    54    95    96    2
    55    18    17    1
    56    17    14    1
    57    16    15    2
    58    72    69    1
    59    72    74    1
    60    69    68    1
    61   122   121    1
    62    14    15    1
    63    14    13    1
    64    15    20   am
    65   114   113    2
    66    87    86    2
    67   120   121   ar
    68   120   118   ar
    69   121   119   ar
    70    91    90   ar
    71    23    22    2
    72    20    21    1
    73    20    26    1
    74    21    22    1
    75    21    24    1
    76   110   109    1
    77    26    25    1
    78   113   112    1
    79   118   116   ar
    80    89    90    1
    81    89    88    1
    82   108   109   ar
    83   108   106   ar
    84   119   117   ar
    85    90    92   ar
    86    25    24    1
    87    86    85    1
    88    12    11    1
    89   109   107   ar
    90   106   104   ar
    91   116   117   ar
    92   116   115    1
    93    84    85    1
    94   112   115    1
    95   112   111    1
    96    85    88    1
    97    11    10   ar
    98    11     9   ar
    99    10     8   ar
   100   107   105   ar
   101   104   105   ar
   102   104   103    1
   103    99   100    1
   104     9     7   ar
   105   100   103    1
   106   100   101    1
   107     8     6   ar
   108   101   102    2
   109     7     6   ar
   110     6     5    1
   111     5     2    1
   112     2     3    1
   113     2     1    1
   114     3     4    2
