@<TRIPOS>MOLECULE
tmp/1kpfA00.pdb
 162 159 0 0 0
SMALL
GASTEIGER

@<TRIPOS>ATOM
      1  N         10.3270    4.8310   20.1080 N.3     3  ILE3       -0.1231
      2  CA         9.6400    6.0750   20.4160 C.3     3  ILE3        0.1692
      3  C          8.1880    6.0110   19.9090 C.2     3  ILE3        0.2592
      4  O          7.2320    6.3990   20.5930 O.2     3  ILE3       -0.2718
      5  CB        10.3750    7.2830   19.7170 C.3     3  ILE3        0.0266
      6  CG1       11.7390    7.5170   20.3980 C.3     3  ILE3        0.0019
      7  CG2        9.5610    8.5680   19.8330 C.3     3  ILE3        0.0020
      8  CD1       12.6550    8.5600   19.7550 C.3     3  ILE3        0.0001
      9  N          8.0090    5.4690   18.7140 N.am    4  PHE4       -0.1976
     10  CA         6.6750    5.4170   18.1240 C.3     4  PHE4        0.1639
     11  C          5.8270    4.3250   18.8040 C.2     4  PHE4        0.2290
     12  O          4.6010    4.4600   18.9050 O.2     4  PHE4       -0.2864
     13  CB         6.7410    5.3160   16.5690 C.3     4  PHE4        0.0560
     14  CG         7.3710    6.5550   15.8810 C.ar    4  PHE4       -0.0200
     15  CD1        7.6780    7.7000   16.6010 C.ar    4  PHE4       -0.0042
     16  CD2        7.6960    6.5330   14.5200 C.ar    4  PHE4       -0.0042
     17  CE1        8.2970    8.7950   15.9930 C.ar    4  PHE4       -0.0003
     18  CE2        8.3090    7.6230   13.9030 C.ar    4  PHE4       -0.0003
     19  CZ         8.6140    8.7620   14.6400 C.ar    4  PHE4       -0.0000
     20  N          4.5360    6.2400   21.6780 N.3     7  ILE7       -0.1245
     21  CA         3.4630    7.1840   21.3450 C.3     7  ILE7        0.1561
     22  C          2.1330    6.3970   21.1710 C.2     7  ILE7        0.2260
     23  O          1.0770    6.8270   21.6510 O.2     7  ILE7       -0.2867
     24  CB         3.7700    7.9570   20.0420 C.3     7  ILE7        0.0252
     25  CG1        4.9000    8.9660   20.2750 C.3     7  ILE7        0.0019
     26  CG2        2.4960    8.6130   19.4950 C.3     7  ILE7        0.0019
     27  CD1        5.3030    9.7900   19.0030 C.3     7  ILE7        0.0001
     28  N          4.6220    8.3690   25.4420 N.3    12  ILE12      -0.1231
     29  CA         5.4200    9.5280   24.9960 C.3    12  ILE12       0.1678
     30  C          4.3840   10.4500   24.3800 C.2    12  ILE12       0.2434
     31  O          3.4870   10.0010   23.6730 O.2    12  ILE12      -0.2733
     32  CB         6.5170    9.1500   23.9190 C.3    12  ILE12       0.0265
     33  CG1        7.7510    8.5760   24.6250 C.3    12  ILE12       0.0019
     34  CG2        6.8970   10.3600   23.0200 C.3    12  ILE12       0.0020
     35  CD1        8.8080    8.1350   23.6480 C.3    12  ILE12       0.0001
     36  N          4.4690   11.7400   24.6820 N.am   13  PRO13      -0.2718
     37  CA         3.5080   12.7310   24.1550 C.3    13  PRO13       0.1535
     38  C          3.4810   13.0050   22.6540 C.2    13  PRO13       0.2598
     39  O          4.5250   12.9680   21.9850 O.2    13  PRO13      -0.2715
     40  CB         3.8400   14.0350   24.9290 C.3    13  PRO13       0.0310
     41  CG         5.1500   13.7800   25.6470 C.3    13  PRO13       0.0237
     42  CD         5.3980   12.2860   25.7020 C.3    13  PRO13       0.0939
     43  N          2.2860   13.2700   22.1430 N.am   14  ALA14      -0.1978
     44  CA         2.0990   13.6560   20.7340 C.3    14  ALA14       0.1597
     45  C          0.6460   14.0870   20.4950 C.2    14  ALA14       0.2287
     46  O         -0.2810   13.3910   20.9600 O.2    14  ALA14      -0.2864
     47  CB         2.4640   12.4750   19.7770 C.3    14  ALA14       0.0319
     48  N          0.8060   12.3270   13.4890 N.3    26  PHE26      -0.1227
     49  CA         1.1700   13.4190   14.3720 C.3    26  PHE26       0.1736
     50  C          2.3140   14.2320   13.7310 C.2    26  PHE26       0.2595
     51  O          3.0470   13.7420   12.8230 O.2    26  PHE26      -0.2718
     52  CB         1.5690   12.8720   15.7450 C.3    26  PHE26       0.0547
     53  CG         2.5930   11.8060   15.6840 C.ar   26  PHE26      -0.0202
     54  CD1        3.9520   12.1450   15.6330 C.ar   26  PHE26      -0.0042
     55  CD2        2.2120   10.4540   15.6410 C.ar   26  PHE26      -0.0042
     56  CE1        4.9270   11.1620   15.5370 C.ar   26  PHE26      -0.0003
     57  CE2        3.1800    9.4240   15.5440 C.ar   26  PHE26      -0.0003
     58  CZ         4.5490    9.7830   15.4900 C.ar   26  PHE26      -0.0000
     59  N          2.4410   15.4830   14.1600 N.am   27  HIS27      -0.1961
     60  CA         3.4650   16.3630   13.6020 C.3    27  HIS27       0.1787
     61  C          4.8930   15.9860   14.0230 C.2    27  HIS27       0.2620
     62  O          5.1460   15.5250   15.1680 O.2    27  HIS27      -0.2715
     63  CB         3.1710   17.8020   13.9970 C.3    27  HIS27       0.0785
     64  CG         1.8990   18.3300   13.4180 C.ar   27  HIS27       0.0821
     65  ND1        1.7970   18.7710   12.1140 N.ar   27  HIS27      -0.2267
     66  CD2        0.6610   18.4660   13.9570 C.ar   27  HIS27       0.1154
     67  CE1        0.5530   19.1520   11.8680 C.ar   27  HIS27       0.1986
     68  NE2       -0.1540   18.9800   12.9700 N.ar   27  HIS27      -0.2212
     69  N          5.8320   16.1570   13.0920 N.am   28  ASP28      -0.1957
     70  CA         7.2310   15.8570   13.3740 C.3    28  ASP28       0.1840
     71  C          7.7710   16.8810   14.3810 C.2    28  ASP28       0.2622
     72  O          7.5590   18.0870   14.2400 O.2    28  ASP28      -0.2715
     73  CB         8.0590   15.9230   12.0980 C.3    28  ASP28       0.1450
     74  CG         9.3680   15.1980   12.2390 C.2    28  ASP28       0.3671
     75  OD1       10.2440   15.7700   12.9260 O.co2  28  ASP28      -0.2456
     76  OD2        9.5150   14.0560   11.6980 O.co2  28  ASP28      -0.2456
     77  N          8.5080   16.3810   15.3690 N.am   29  ILE29      -0.1963
     78  CA         9.0460   17.2300   16.4280 C.3    29  ILE29       0.1727
     79  C         10.1260   18.1990   15.9680 C.2    29  ILE29       0.2616
     80  O         10.4600   19.1630   16.6690 O.2    29  ILE29      -0.2715
     81  CB         9.5480   16.3630   17.6230 C.3    29  ILE29       0.0290
     82  CG1        9.5890   17.1930   18.9040 C.3    29  ILE29       0.0022
     83  CG2       10.9270   15.7840   17.3190 C.3    29  ILE29       0.0023
     84  CD1        9.6290   16.3400   20.1310 C.3    29  ILE29       0.0001
     85  N         10.6480   17.9500   14.7730 N.am   30  SER30      -0.1950
     86  CA        11.7020   18.7650   14.1710 C.3    30  SER30       0.1924
     87  C         11.2280   18.9870   12.7150 C.2    30  SER30       0.2314
     88  O         11.7720   18.4160   11.7770 O.2    30  SER30      -0.2863
     89  CB        12.9750   17.9300   14.2460 C.3    30  SER30       0.2116
     90  OG        14.1090   18.6750   13.9310 O.3    30  SER30      -0.2180
     91  N          4.8050   19.3180    8.3320 N.3    36  HIS36      -0.1241
     92  CA         5.6360   18.1320    8.3010 C.3    36  HIS36       0.1621
     93  C          5.0760   17.1940    9.3570 C.2    36  HIS36       0.2264
     94  O          5.1930   17.4820   10.5780 O.2    36  HIS36      -0.2867
     95  CB         7.0950   18.4930    8.5990 C.3    36  HIS36       0.0745
     96  CG         8.0340   17.3150    8.6110 C.ar   36  HIS36       0.0817
     97  ND1        9.3430   17.4090    9.0550 N.ar   36  HIS36      -0.2268
     98  CD2        7.8490   16.0090    8.2710 C.ar   36  HIS36       0.1154
     99  CE1        9.9200   16.2180    8.9920 C.ar   36  HIS36       0.1986
    100  NE2        9.0350   15.3540    8.5190 N.ar   36  HIS36      -0.2212
    101  N          3.9380   12.8290   10.3650 N.3    38  LEU38      -0.1245
    102  CA         4.2220   11.4230   10.1470 C.3    38  LEU38       0.1561
    103  C          2.9460   10.5680   10.2700 C.2    38  LEU38       0.2260
    104  O          2.0110   10.8940   11.0350 O.2    38  LEU38      -0.2867
    105  CB         5.2340   10.9250   11.1790 C.3    38  LEU38       0.0270
    106  CG         6.5260   11.7270   11.3720 C.3    38  LEU38       0.0019
    107  CD1        7.3140   11.2210   12.6260 C.3    38  LEU38       0.0001
    108  CD2        7.4200   11.6730   10.1260 C.3    38  LEU38       0.0001
    109  N         12.2450    6.6790    5.1370 N.3    84  ASN84      -0.1240
    110  CA        13.6690    6.5360    5.3940 C.3    84  ASN84       0.1653
    111  C         14.0090    5.1190    5.8050 C.2    84  ASN84       0.2266
    112  O         13.5200    4.6340    6.8380 O.2    84  ASN84      -0.2867
    113  CB        14.1080    7.5070    6.4760 C.3    84  ASN84       0.1155
    114  CG        14.1910    8.9430    5.9790 C.2    84  ASN84       0.2627
    115  OD1       14.1450    9.2190    4.7660 O.2    84  ASN84      -0.2716
    116  ND2       14.3570    9.8650    6.9110 N.am   84  ASN84      -0.0877
    117  N         18.8180    7.3110    6.3040 N.3    90  GLY90      -0.1210
    118  CA        18.7360    8.2620    7.3840 C.3    90  GLY90       0.1956
    119  C         17.7520    7.8430    8.4560 C.2    90  GLY90       0.2612
    120  O         17.4260    8.6710    9.3090 O.2    90  GLY90      -0.2717
    121  N         17.3570    6.5790    8.4840 N.am   91  GLN91      -0.1965
    122  CA        16.3900    6.1150    9.4840 C.3    91  GLN91       0.1733
    123  C         16.8660    6.2630   10.9670 C.2    91  GLN91       0.2617
    124  O         18.0030    5.8750   11.3300 O.2    91  GLN91      -0.2715
    125  CB        15.9650    4.6700    9.1860 C.3    91  GLN91       0.0408
    126  CG        14.8960    4.1370   10.1640 C.3    91  GLN91       0.0908
    127  CD        14.2600    2.8290    9.6810 C.2    91  GLN91       0.2608
    128  OE1       14.7750    2.1610    8.7600 O.2    91  GLN91      -0.2717
    129  NE2       13.1420    2.4510   10.3090 N.am   91  GLN91      -0.0878
    130  N         15.9910    6.8160   11.7990 N.am   92  SER92      -0.1936
    131  CA        16.3280    7.0240   13.2180 C.3    92  SER92       0.2055
    132  C         15.4530    6.1740   14.1390 C.2    92  SER92       0.2642
    133  O         15.9060    5.6300   15.1690 O.2    92  SER92      -0.2714
    134  CB        16.1470    8.4950   13.5930 C.3    92  SER92       0.2130
    135  OG        17.0390    9.2930   12.8450 O.3    92  SER92      -0.2179
    136  N         14.1930    6.0540   13.7460 N.am   93  VAL93      -0.1977
    137  CA        13.2430    5.2880   14.5460 C.3    93  VAL93       0.1596
    138  C         12.8690    4.0570   13.7540 C.2    93  VAL93       0.2287
    139  O         12.2840    4.1590   12.6510 O.2    93  VAL93      -0.2864
    140  CB        11.9840    6.1360   14.9500 C.3    93  VAL93       0.0276
    141  CG1       11.0110    5.2690   15.7490 C.3    93  VAL93       0.0022
    142  CG2       12.4430    7.4320   15.7260 C.3    93  VAL93       0.0022
    143  N          7.3180    4.0890    9.1370 N.3    97  HIS97      -0.1241
    144  CA         6.4420    5.2390    9.1110 C.3    97  HIS97       0.1621
    145  C          6.7290    6.0310    7.8650 C.2    97  HIS97       0.2264
    146  O          7.7960    5.9100    7.2420 O.2    97  HIS97      -0.2867
    147  CB         6.6350    6.1260   10.3500 C.3    97  HIS97       0.0745
    148  CG         8.0500    6.5750   10.5630 C.ar   97  HIS97       0.0817
    149  ND1        9.0130    5.7630   11.1380 N.ar   97  HIS97      -0.2268
    150  CD2        8.6740    7.7400   10.2570 C.ar   97  HIS97       0.1154
    151  CE1       10.1670    6.4050   11.1700 C.ar   97  HIS97       0.1986
    152  NE2        9.9880    7.6100   10.6430 N.ar   97  HIS97      -0.2212
    153  N          6.7170   10.0390    6.0730 N.3    99  HIS99      -0.1241
    154  CA         6.7700   11.4950    6.2730 C.3    99  HIS99       0.1621
    155  C          5.9230   12.1430    5.1790 C.2    99  HIS99       0.2264
    156  O          5.8460   11.6310    4.0520 O.2    99  HIS99      -0.2867
    157  CB         8.1850   12.0490    6.0680 C.3    99  HIS99       0.0745
    158  CG         9.1850   11.6250    7.1030 C.ar   99  HIS99       0.0817
    159  ND1        9.6240   12.4690    8.1070 N.ar   99  HIS99      -0.2268
    160  CD2        9.9230   10.4960    7.2270 C.ar   99  HIS99       0.1154
    161  CE1       10.6030   11.8850    8.7860 C.ar   99  HIS99       0.1986
    162  NE2       10.8000   10.6900    8.2710 N.ar   99  HIS99      -0.2212
@<TRIPOS>BOND
     1   156   155    2
     2   115   114    2
     3   109   110    1
     4   155   154    1
     5   110   111    1
     6   110   113    1
     7   111   112    2
     8   114   113    1
     9   114   116   am
    10   157   154    1
    11   157   158    1
    12   153   154    1
    13   117   118    1
    14   158   160   ar
    15   158   159   ar
    16   160   162   ar
    17   146   145    2
    18   118   119    1
    19   145   144    1
    20   159   161   ar
    21    98   100   ar
    22    98    96   ar
    23   162   161   ar
    24    92    91    1
    25    92    95    1
    26    92    93    1
    27   119   121   am
    28   119   120    2
    29   121   122    1
    30   100    99   ar
    31    95    96    1
    32    96    97   ar
    33   128   127    2
    34    99    97   ar
    35   144   143    1
    36   144   147    1
    37   125   122    1
    38   125   126    1
    39    93    94    2
    40   122   123    1
    41   127   126    1
    42   127   129   am
    43   108   106    1
    44   102   103    1
    45   102   101    1
    46   102   105    1
    47   150   148   ar
    48   150   152   ar
    49   103   104    2
    50   147   148    1
    51   148   149   ar
    52   152   151   ar
    53   123   124    2
    54   123   130   am
    55   149   151   ar
    56   105   106    1
    57   106   107    1
    58    76    74   ar
    59    88    87    2
    60   130   131    1
    61    67    65   ar
    62    67    68   ar
    63    73    74    1
    64    73    70    1
    65    65    64   ar
    66    74    75   ar
    67   139   138    2
    68    87    86    1
    69    51    50    2
    70   135   134    1
    71    68    66   ar
    72    69    70    1
    73    69    61   am
    74   131   134    1
    75   131   132    1
    76    70    71    1
    77    64    66   ar
    78    64    63    1
    79    48    49    1
    80    60    63    1
    81    60    61    1
    82    60    59    1
    83    50    59   am
    84    50    49    1
    85   136   132   am
    86   136   137    1
    87   138   137    1
    88    18    16   ar
    89    18    19   ar
    90    90    89    1
    91    61    62    2
    92   132   133    2
    93    86    89    1
    94    86    85    1
    95    72    71    2
    96    49    52    1
    97    71    77   am
    98    16    14   ar
    99   137   140    1
   100    19    17   ar
   101    85    79   am
   102   140   142    1
   103   140   141    1
   104    77    78    1
   105    58    56   ar
   106    58    57   ar
   107    56    54   ar
   108    57    55   ar
   109    54    53   ar
   110    55    53   ar
   111    53    52    1
   112    14    13    1
   113    14    15   ar
   114    79    78    1
   115    79    80    2
   116    17    15   ar
   117    78    81    1
   118    13    10    1
   119    83    81    1
   120    81    82    1
   121    10     9    1
   122    10    11    1
   123     9     3   am
   124    11    12    2
   125    82    84    1
   126    27    25    1
   127    26    24    1
   128     5     7    1
   129     5     6    1
   130     5     2    1
   131     8     6    1
   132    47    44    1
   133     3     2    1
   134     3     4    2
   135    24    25    1
   136    24    21    1
   137     1     2    1
   138    45    44    1
   139    45    46    2
   140    44    43    1
   141    22    21    1
   142    22    23    2
   143    21    20    1
   144    39    38    2
   145    43    38   am
   146    38    37    1
   147    34    32    1
   148    35    33    1
   149    31    30    2
   150    32    33    1
   151    32    29    1
   152    37    36    1
   153    37    40    1
   154    30    36   am
   155    30    29    1
   156    36    42    1
   157    40    41    1
   158    29    28    1
   159    41    42    1
