@<TRIPOS>MOLECULE
tmp/1kpgB01.pdb
 219 213 0 0 0
SMALL
GASTEIGER

@<TRIPOS>ATOM
      1  N         44.7080   40.4520   61.6870 N.3    13  TYR13      -0.1241
      2  CA        44.7550   41.4230   60.6000 C.3    13  TYR13       0.1605
      3  C         43.5010   42.2370   60.2980 C.2    13  TYR13       0.2264
      4  O         43.6050   43.3050   59.7030 O.2    13  TYR13      -0.2867
      5  CB        45.2710   40.7460   59.3210 C.3    13  TYR13       0.0534
      6  CG        46.5580   39.9860   59.5540 C.ar   13  TYR13      -0.0201
      7  CD1       46.5410   38.6130   59.8100 C.ar   13  TYR13      -0.0009
      8  CD2       47.7840   40.6520   59.6250 C.ar   13  TYR13      -0.0009
      9  CE1       47.7080   37.9250   60.1410 C.ar   13  TYR13       0.0417
     10  CE2       48.9610   39.9680   59.9610 C.ar   13  TYR13       0.0417
     11  CZ        48.9100   38.6090   60.2200 C.ar   13  TYR13       0.1957
     12  OH        50.0500   37.9350   60.5890 O.3    13  TYR13      -0.2866
     13  N         54.1750   44.3450   56.7900 N.3    30  TYR30      -0.1227
     14  CA        54.1170   43.7910   58.1350 C.3    30  TYR30       0.1736
     15  C         55.0240   42.5640   58.2310 C.2    30  TYR30       0.2596
     16  O         54.5590   41.4350   58.4330 O.2    30  TYR30      -0.2718
     17  CB        52.6600   43.4170   58.4140 C.3    30  TYR30       0.0548
     18  CG        52.2630   43.2410   59.8630 C.ar   30  TYR30      -0.0200
     19  CD1       53.1700   43.4490   60.9060 C.ar   30  TYR30      -0.0009
     20  CD2       50.9620   42.8550   60.1870 C.ar   30  TYR30      -0.0009
     21  CE1       52.7800   43.2710   62.2420 C.ar   30  TYR30       0.0417
     22  CE2       50.5660   42.6770   61.5040 C.ar   30  TYR30       0.0417
     23  CZ        51.4700   42.8840   62.5250 C.ar   30  TYR30       0.1957
     24  OH        51.0490   42.7030   63.8190 O.3    30  TYR30      -0.2866
     25  N         56.3210   42.8000   58.0730 N.am   31  SER31      -0.1952
     26  CA        57.3190   41.7450   58.1250 C.3    31  SER31       0.1924
     27  C         58.6900   42.3950   58.2820 C.2    31  SER31       0.2314
     28  O         58.8440   43.5940   58.0470 O.2    31  SER31      -0.2863
     29  CB        57.2650   40.9080   56.8450 C.3    31  SER31       0.2116
     30  OG        57.3420   41.7310   55.6920 O.3    31  SER31      -0.2180
     31  N         56.0170   35.9440   52.4010 N.3   129  ILE129     -0.1231
     32  CA        56.7110   36.6140   53.4930 C.3   129  ILE129      0.1692
     33  C         55.8500   36.7280   54.7590 C.2   129  ILE129      0.2592
     34  O         54.8510   37.4390   54.7730 O.2   129  ILE129     -0.2718
     35  CB        57.1290   38.0380   53.0290 C.3   129  ILE129      0.0266
     36  CG1       57.9920   37.9310   51.7710 C.3   129  ILE129      0.0019
     37  CG2       57.8490   38.7760   54.1430 C.3   129  ILE129      0.0020
     38  CD1       58.1890   39.2670   51.0470 C.3   129  ILE129      0.0001
     39  N         56.2350   36.0080   55.8100 N.am  130  GLY130     -0.1957
     40  CA        55.5050   36.0680   57.0660 C.3   130  GLY130      0.1869
     41  C         54.1330   35.4200   57.1160 C.2   130  GLY130      0.2309
     42  O         53.3420   35.7330   58.0070 O.2   130  GLY130     -0.2863
     43  N         54.1240   31.1920   59.1120 N.3   133  GLU133     -0.1231
     44  CA        53.9280   31.0910   60.5540 C.3   133  GLU133      0.1699
     45  C         52.4850   30.8070   60.9550 C.2   133  GLU133      0.2592
     46  O         52.2300   30.3700   62.0760 O.2   133  GLU133     -0.2718
     47  CB        54.4020   32.3730   61.2460 C.3   133  GLU133      0.0402
     48  CG        55.8630   32.7150   61.0100 C.3   133  GLU133      0.1161
     49  CD        56.0950   33.4960   59.7290 C.2   133  GLU133      0.3649
     50  OE1       55.3870   33.2450   58.7320 O.co2 133  GLU133     -0.2457
     51  OE2       57.0020   34.3560   59.7160 O.co2 133  GLU133     -0.2457
     52  N         51.5540   31.0590   60.0380 N.am  134  HIS134     -0.1976
     53  CA        50.1310   30.8350   60.2740 C.3   134  HIS134      0.1656
     54  C         49.6550   29.4720   59.7590 C.2   134  HIS134      0.2291
     55  O         48.5510   29.0320   60.0770 O.2   134  HIS134     -0.2864
     56  CB        49.3010   31.9160   59.5730 C.3   134  HIS134      0.0771
     57  CG        49.4410   33.2860   60.1630 C.ar  134  HIS134      0.0820
     58  ND1       48.8440   33.6500   61.3520 N.ar  134  HIS134     -0.2267
     59  CD2       50.0690   34.3950   59.7020 C.ar  134  HIS134      0.1154
     60  CE1       49.0950   34.9240   61.5960 C.ar  134  HIS134      0.1986
     61  NE2       49.8350   35.4010   60.6100 N.ar  134  HIS134     -0.2212
     62  N         59.7360   33.5850   59.9800 N.3   161  ILE161     -0.1245
     63  CA        60.4200   33.6320   61.2540 C.3   161  ILE161      0.1561
     64  C         60.6840   32.1610   61.5940 C.2   161  ILE161      0.2260
     65  O         59.9020   31.2870   61.2080 O.2   161  ILE161     -0.2867
     66  CB        59.5090   34.2510   62.3310 C.3   161  ILE161      0.0252
     67  CG1       59.2040   35.7090   61.9710 C.3   161  ILE161      0.0019
     68  CG2       60.1610   34.1250   63.7080 C.3   161  ILE161      0.0019
     69  CD1       57.9980   36.2810   62.6910 C.3   161  ILE161      0.0001
     70  N         60.6920   33.1220   77.7520 N.3   179  PHE179     -0.1241
     71  CA        60.4180   32.8570   76.3480 C.3   179  PHE179      0.1605
     72  C         59.1590   32.0060   76.2330 C.2   179  PHE179      0.2264
     73  O         58.2190   32.3760   75.5370 O.2   179  PHE179     -0.2867
     74  CB        61.6050   32.1310   75.7050 C.3   179  PHE179      0.0534
     75  CG        61.4410   31.8830   74.2280 C.ar  179  PHE179     -0.0203
     76  CD1       61.1890   32.9370   73.3550 C.ar  179  PHE179     -0.0042
     77  CD2       61.5340   30.5970   73.7110 C.ar  179  PHE179     -0.0042
     78  CE1       61.0300   32.7110   71.9880 C.ar  179  PHE179     -0.0003
     79  CE2       61.3760   30.3630   72.3440 C.ar  179  PHE179     -0.0003
     80  CZ        61.1240   31.4240   71.4830 C.ar  179  PHE179     -0.0000
     81  N         56.2890   33.9800   76.9640 N.3   182  PHE182     -0.1227
     82  CA        56.0410   34.9440   75.9010 C.3   182  PHE182      0.1736
     83  C         55.3910   34.2740   74.6820 C.2   182  PHE182      0.2595
     84  O         54.4780   34.8340   74.0840 O.2   182  PHE182     -0.2718
     85  CB        57.3390   35.6470   75.4950 C.3   182  PHE182      0.0547
     86  CG        57.1180   36.8680   74.6450 C.ar  182  PHE182     -0.0202
     87  CD1       56.4690   37.9890   75.1690 C.ar  182  PHE182     -0.0042
     88  CD2       57.5200   36.8880   73.3150 C.ar  182  PHE182     -0.0042
     89  CE1       56.2190   39.1130   74.3740 C.ar  182  PHE182     -0.0003
     90  CE2       57.2760   38.0070   72.5110 C.ar  182  PHE182     -0.0003
     91  CZ        56.6230   39.1200   73.0430 C.ar  182  PHE182     -0.0000
     92  N         55.8530   33.0790   74.3210 N.am  183  LEU183     -0.1980
     93  CA        55.2750   32.3540   73.1900 C.3   183  LEU183      0.1596
     94  C         53.7940   32.1020   73.4430 C.2   183  LEU183      0.2287
     95  O         52.9710   32.2530   72.5440 O.2   183  LEU183     -0.2864
     96  CB        55.9670   31.0060   72.9810 C.3   183  LEU183      0.0297
     97  CG        57.3540   30.9530   72.3360 C.3   183  LEU183      0.0022
     98  CD1       57.7520   29.5000   72.1690 C.3   183  LEU183      0.0001
     99  CD2       57.3370   31.6410   70.9820 C.3   183  LEU183      0.0001
    100  N         51.9200   35.3400   72.7940 N.3   186  ILE186     -0.1231
    101  CA        51.8010   35.6160   71.3610 C.3   186  ILE186      0.1692
    102  C         50.7700   34.7230   70.6660 C.2   186  ILE186      0.2591
    103  O         49.9410   35.1970   69.8940 O.2   186  ILE186     -0.2718
    104  CB        53.1650   35.4310   70.6470 C.3   186  ILE186      0.0266
    105  CG1       54.1850   36.4450   71.1800 C.3   186  ILE186      0.0019
    106  CG2       52.9920   35.5590   69.1310 C.3   186  ILE186      0.0020
    107  CD1       53.8400   37.9030   70.8990 C.3   186  ILE186      0.0001
    108  N         50.8290   33.4280   70.9480 N.am  187  VAL187     -0.1980
    109  CA        49.9260   32.4640   70.3330 C.3   187  VAL187      0.1595
    110  C         48.4780   32.5420   70.8050 C.2   187  VAL187      0.2287
    111  O         47.5660   32.1300   70.0910 O.2   187  VAL187     -0.2864
    112  CB        50.4670   31.0280   70.5420 C.3   187  VAL187      0.0276
    113  CG1       49.3450   30.0050   70.4390 C.3   187  VAL187      0.0022
    114  CG2       51.5250   30.7400   69.4970 C.3   187  VAL187      0.0022
    115  N         48.6180   36.1020   67.8030 N.3   191  PHE191     -0.1241
    116  CA        48.4180   35.2700   66.6240 C.3   191  PHE191      0.1605
    117  C         47.8480   33.8910   66.9480 C.2   191  PHE191      0.2264
    118  O         48.5830   32.9050   66.9950 O.2   191  PHE191     -0.2867
    119  CB        49.7420   35.1180   65.8840 C.3   191  PHE191      0.0534
    120  CG        50.3480   36.4210   65.4620 C.ar  191  PHE191     -0.0203
    121  CD1       51.5520   36.8470   66.0070 C.ar  191  PHE191     -0.0042
    122  CD2       49.7280   37.2120   64.4990 C.ar  191  PHE191     -0.0042
    123  CE1       52.1380   38.0440   65.5980 C.ar  191  PHE191     -0.0003
    124  CE2       50.3060   38.4160   64.0800 C.ar  191  PHE191     -0.0003
    125  CZ        51.5140   38.8290   64.6320 C.ar  191  PHE191     -0.0000
    126  N         49.1610   30.4080   65.6810 N.3   194  GLY194     -0.1210
    127  CA        50.5000   30.5910   65.1590 C.3   194  GLY194      0.1956
    128  C         51.4600   29.5070   65.6170 C.2   194  GLY194      0.2612
    129  O         51.3640   29.0060   66.7410 O.2   194  GLY194     -0.2717
    130  N         52.3890   29.1490   64.7360 N.am  195  ARG195     -0.1965
    131  CA        53.3880   28.1240   65.0190 C.3   195  ARG195      0.1729
    132  C         54.7630   28.5800   64.5450 C.2   195  ARG195      0.2616
    133  O         54.8960   29.1340   63.4560 O.2   195  ARG195     -0.2715
    134  CB        53.0090   26.8180   64.3160 C.3   195  ARG195      0.0348
    135  CG        52.2240   25.8550   65.1790 C.3   195  ARG195      0.0492
    136  CD        53.1620   25.0640   66.0740 C.3   195  ARG195      0.2205
    137  NE        52.4440   24.2030   67.0060 N.pl3 195  ARG195     -0.0865
    138  CZ        52.9770   23.1400   67.5990 C.cat 195  ARG195      0.5346
    139  NH1       54.2370   22.8020   67.3500 N.pl3 195  ARG195      0.1354
    140  NH2       52.2550   22.4220   68.4520 N.pl3 195  ARG195      0.1354
    141  N         55.7780   28.3400   65.3660 N.am  196  LEU196     -0.1977
    142  CA        57.1460   28.7260   65.0410 C.3   196  LEU196      0.1596
    143  C         57.8790   27.5410   64.4130 C.2   196  LEU196      0.2287
    144  O         58.0000   26.4830   65.0290 O.2   196  LEU196     -0.2864
    145  CB        57.8700   29.1690   66.3160 C.3   196  LEU196      0.0297
    146  CG        59.2630   29.7960   66.1910 C.3   196  LEU196      0.0022
    147  CD1       59.1620   31.1370   65.4810 C.3   196  LEU196      0.0001
    148  CD2       59.8620   29.9840   67.5810 C.3   196  LEU196      0.0001
    149  N         65.2880   42.4840   62.4360 N.3   222  TYR222     -0.1241
    150  CA        63.9630   42.4250   63.0340 C.3   222  TYR222      0.1605
    151  C         63.8880   43.1530   64.3720 C.2   222  TYR222      0.2264
    152  O         62.8620   43.7410   64.7060 O.2   222  TYR222     -0.2867
    153  CB        63.4930   40.9740   63.2110 C.3   222  TYR222      0.0534
    154  CG        62.0640   40.7900   62.7450 C.ar  222  TYR222     -0.0201
    155  CD1       61.1670   41.8600   62.7790 C.ar  222  TYR222     -0.0009
    156  CD2       61.6130   39.5660   62.2420 C.ar  222  TYR222     -0.0009
    157  CE1       59.8660   41.7250   62.3190 C.ar  222  TYR222      0.0417
    158  CE2       60.3010   39.4200   61.7800 C.ar  222  TYR222      0.0417
    159  CZ        59.4390   40.5090   61.8200 C.ar  222  TYR222      0.1957
    160  OH        58.1560   40.4120   61.3440 O.3   222  TYR222     -0.2866
    161  N         61.0540   45.9780   64.8100 N.3   226  LEU226     -0.1245
    162  CA        60.1100   45.9920   65.9170 C.3   226  LEU226      0.1561
    163  C         60.3030   47.2400   66.7790 C.2   226  LEU226      0.2260
    164  O         59.3300   47.8400   67.2280 O.2   226  LEU226     -0.2867
    165  CB        60.2730   44.7190   66.7550 C.3   226  LEU226      0.0270
    166  CG        59.7550   43.4460   66.0700 C.3   226  LEU226      0.0019
    167  CD1       60.3260   42.1960   66.7370 C.3   226  LEU226      0.0001
    168  CD2       58.2370   43.4420   66.1190 C.3   226  LEU226      0.0001
    169  N         58.5430   49.9750   65.0520 N.3   229  TRP229     -0.1241
    170  CA        57.0930   49.8630   65.1430 C.3   229  TRP229      0.1605
    171  C         56.6000   50.2780   66.5200 C.2   229  TRP229      0.2264
    172  O         55.6840   51.0910   66.6340 O.2   229  TRP229     -0.2867
    173  CB        56.6270   48.4290   64.8590 C.3   229  TRP229      0.0550
    174  CG        56.7460   48.0060   63.4290 C.ar  229  TRP229      0.0003
    175  CD1       56.8700   48.8150   62.3330 C.ar  229  TRP229      0.0946
    176  CD2       56.7180   46.6620   62.9350 C.ar  229  TRP229      0.0152
    177  NE1       56.9200   48.0520   61.1830 N.ar  229  TRP229     -0.2442
    178  CE2       56.8290   46.7290   61.5260 C.ar  229  TRP229      0.0810
    179  CE3       56.6100   45.4060   63.5480 C.ar  229  TRP229      0.0012
    180  CZ2       56.8360   45.5850   60.7190 C.ar  229  TRP229      0.0191
    181  CZ3       56.6170   44.2650   62.7440 C.ar  229  TRP229      0.0001
    182  CH2       56.7290   44.3670   61.3450 C.ar  229  TRP229      0.0015
    183  N         53.4750   43.0080   72.9040 N.3   254  TYR254     -0.1241
    184  CA        53.7960   42.1510   71.7730 C.3   254  TYR254      0.1605
    185  C         54.9820   42.7040   70.9740 C.2   254  TYR254      0.2264
    186  O         55.9780   42.0090   70.7750 O.2   254  TYR254     -0.2867
    187  CB        52.5360   41.9950   70.9060 C.3   254  TYR254      0.0534
    188  CG        52.7350   41.9330   69.4060 C.ar  254  TYR254     -0.0201
    189  CD1       53.6640   41.0660   68.8290 C.ar  254  TYR254     -0.0009
    190  CD2       51.9530   42.7130   68.5580 C.ar  254  TYR254     -0.0009
    191  CE1       53.8070   40.9790   67.4490 C.ar  254  TYR254      0.0417
    192  CE2       52.0840   42.6300   67.1770 C.ar  254  TYR254      0.0417
    193  CZ        53.0130   41.7650   66.6310 C.ar  254  TYR254      0.1957
    194  OH        53.1640   41.7040   65.2690 O.3   254  TYR254     -0.2866
    195  N         58.7630   40.9890   71.3540 N.3   258  CYS258     -0.1235
    196  CA        59.3540   40.3360   70.1960 C.3   258  CYS258      0.1677
    197  C         60.7110   40.9710   69.8900 C.2   258  CYS258      0.2270
    198  O         61.6660   40.2800   69.5330 O.2   258  CYS258     -0.2867
    199  CB        58.4250   40.4550   68.9750 C.3   258  CYS258      0.0956
    200  SG        56.8730   39.4900   69.0700 S.3   258  CYS258     -0.0801
    201  N         64.3470   38.7150   69.5680 N.3   261  PHE261     -0.1241
    202  CA        65.1750   38.6870   68.3680 C.3   261  PHE261      0.1605
    203  C         66.5470   39.2410   68.7450 C.2   261  PHE261      0.2264
    204  O         67.5810   38.7250   68.3180 O.2   261  PHE261     -0.2867
    205  CB        64.5760   39.5570   67.2600 C.3   261  PHE261      0.0534
    206  CG        63.6100   38.8320   66.3650 C.ar  261  PHE261     -0.0203
    207  CD1       62.2420   39.0860   66.4400 C.ar  261  PHE261     -0.0042
    208  CD2       64.0700   37.9050   65.4330 C.ar  261  PHE261     -0.0042
    209  CE1       61.3420   38.4250   65.5970 C.ar  261  PHE261     -0.0003
    210  CE2       63.1840   37.2370   64.5850 C.ar  261  PHE261     -0.0003
    211  CZ        61.8170   37.4970   64.6670 C.ar  261  PHE261     -0.0000
    212  N         64.9050   33.9440   68.6680 N.3   266  ILE266     -0.1245
    213  CA        64.1610   33.7010   67.4390 C.3   266  ILE266      0.1561
    214  C         64.9380   34.3120   66.2810 C.2   266  ILE266      0.2260
    215  O         65.7670   35.2050   66.4750 O.2   266  ILE266     -0.2867
    216  CB        62.7230   34.2830   67.4780 C.3   266  ILE266      0.0252
    217  CG1       62.7430   35.7340   67.9510 C.3   266  ILE266      0.0019
    218  CG2       61.8390   33.4160   68.3660 C.3   266  ILE266      0.0019
    219  CD1       61.3550   36.3300   68.1080 C.3   266  ILE266      0.0001
@<TRIPOS>BOND
     1    38    36    1
     2    36    35    1
     3    31    32    1
     4    35    32    1
     5    35    37    1
     6    32    33    1
     7    33    34    2
     8    33    39   am
     9    30    29    1
    10    39    40    1
    11    13    14    1
    12    29    26    1
    13    40    41    1
    14    41    42    2
    15    28    27    2
    16    25    26    1
    17    25    15   am
    18    26    27    1
    19    14    15    1
    20    14    17    1
    21    15    16    2
    22    17    18    1
    23    50    49   ar
    24    43    44    1
    25     5     6    1
    26     5     2    1
    27     6     8   ar
    28     6     7   ar
    29    56    57    1
    30    56    53    1
    31     8    10   ar
    32    59    57   ar
    33    59    61   ar
    34     4     3    2
    35    51    49   ar
    36    49    48    1
    37    54    55    2
    38    54    53    1
    39     7     9   ar
    40    18    20   ar
    41    18    19   ar
    42    10    11   ar
    43    62    63    1
    44    52    53    1
    45    52    45   am
    46     9    11   ar
    47    57    58   ar
    48    20    22   ar
    49    11    12    1
    50     3     2    1
    51    44    45    1
    52    44    47    1
    53     2     1    1
    54    61    60   ar
    55   180   182   ar
    56   180   178   ar
    57    19    21   ar
    58    45    46    2
    59    48    47    1
    60   177   178   ar
    61   177   175   ar
    62    65    64    2
    63    63    64    1
    64    63    66    1
    65   160   159    1
    66   182   181   ar
    67    58    60   ar
    68    22    23   ar
    69   178   176   ar
    70   158   159   ar
    71   158   156   ar
    72   159   157   ar
    73    67    66    1
    74    67    69    1
    75   156   154   ar
    76    21    23   ar
    77   157   155   ar
    78    66    68    1
    79   175   174   ar
    80   149   150    1
    81    23    24    1
    82   181   179   ar
    83   154   155   ar
    84   154   153    1
    85   176   174   ar
    86   176   179   ar
    87   150   153    1
    88   150   151    1
    89   174   173    1
    90   133   132    2
    91   124   122   ar
    92   124   125   ar
    93   134   131    1
    94   134   135    1
    95   151   152    2
    96   143   144    2
    97   143   142    1
    98   122   120   ar
    99   132   131    1
   100   132   141   am
   101   210   211   ar
   102   210   208   ar
   103   125   123   ar
   104   211   209   ar
   105   130   131    1
   106   130   128   am
   107   161   162    1
   108   173   170    1
   109   142   141    1
   110   142   145    1
   111   169   170    1
   112   170   171    1
   113   127   128    1
   114   127   126    1
   115   135   136    1
   116   194   193    1
   117   208   206   ar
   118   120   119    1
   119   120   121   ar
   120   147   146    1
   121   209   207   ar
   122   123   121   ar
   123   128   129    2
   124   119   116    1
   125   162   165    1
   126   162   163    1
   127   166   168    1
   128   166   167    1
   129   166   165    1
   130   136   137    1
   131   146   145    1
   132   146   148    1
   133   214   215    2
   134   214   213    1
   135   206   207   ar
   136   206   205    1
   137   171   172    2
   138   116   117    1
   139   116   115    1
   140   193   192   ar
   141   193   191   ar
   142   163   164    2
   143   117   118    2
   144   137   138    2
   145   192   190   ar
   146   205   202    1
   147   139   138    1
   148   213   216    1
   149   213   212    1
   150   191   189   ar
   151   216   217    1
   152   216   218    1
   153   138   140    1
   154   217   219    1
   155   204   203    2
   156   202   203    1
   157   202   201    1
   158   190   188   ar
   159   189   188   ar
   160   199   200    1
   161   199   196    1
   162   106   104    1
   163   188   187    1
   164   114   112    1
   165   198   197    2
   166   197   196    1
   167   103   102    2
   168   111   110    2
   169   196   195    1
   170   109   112    1
   171   109   110    1
   172   109   108    1
   173   113   112    1
   174   104   105    1
   175   104   101    1
   176   102   108   am
   177   102   101    1
   178   186   185    2
   179   107   105    1
   180   187   184    1
   181   185   184    1
   182    99    97    1
   183   101   100    1
   184    80    78   ar
   185    80    79   ar
   186   184   183    1
   187    78    76   ar
   188    98    97    1
   189    97    96    1
   190    79    77   ar
   191    90    91   ar
   192    90    88   ar
   193    95    94    2
   194    96    93    1
   195    91    89   ar
   196    93    94    1
   197    93    92    1
   198    88    86   ar
   199    76    75   ar
   200    77    75   ar
   201    84    83    2
   202    75    74    1
   203    92    83   am
   204    89    87   ar
   205    86    87   ar
   206    86    85    1
   207    83    82    1
   208    85    82    1
   209    73    72    2
   210    74    71    1
   211    82    81    1
   212    72    71    1
   213    71    70    1
