@<TRIPOS>MOLECULE
tmp/1kphA00.pdb
 171 168 0 0 0
SMALL
GASTEIGER

@<TRIPOS>ATOM
      1  N         -9.8110   34.7580  130.3310 N.3     3  PRO3       -0.2102
      2  CA        -8.7410   33.9460  130.9190 C.3     3  PRO3        0.1504
      3  C         -8.2910   34.5060  132.2640 C.2     3  PRO3        0.2575
      4  O         -8.3540   35.7170  132.4890 O.2     3  PRO3       -0.2718
      5  CB        -7.6380   34.0230  129.8700 C.3     3  PRO3        0.0282
      6  CG        -8.4050   34.1290  128.5900 C.3     3  PRO3        0.0208
      7  CD        -9.4890   35.1230  128.9400 C.3     3  PRO3        0.0893
      8  N         -7.8410   33.6260  133.1560 N.am    4  HIS4       -0.1976
      9  CA        -7.3780   34.0550  134.4680 C.3     4  HIS4        0.1656
     10  C         -5.9090   34.4580  134.3970 C.2     4  HIS4        0.2291
     11  O         -5.0440   33.8090  134.9850 O.2     4  HIS4       -0.2864
     12  CB        -7.5590   32.9350  135.4980 C.3     4  HIS4        0.0771
     13  CG        -8.9580   32.4050  135.5790 C.ar    4  HIS4        0.0820
     14  ND1       -9.4360   31.4290  134.7310 N.ar    4  HIS4       -0.2267
     15  CD2       -9.9830   32.7160  136.4080 C.ar    4  HIS4        0.1154
     16  CE1      -10.6940   31.1600  135.0350 C.ar    4  HIS4        0.1986
     17  NE2      -11.0500   31.9280  136.0480 N.ar    4  HIS4       -0.2212
     18  N         -2.6660   32.8020  136.8880 N.3     8  VAL8       -0.1245
     19  CA        -1.6510   32.0640  136.1520 C.3     8  VAL8        0.1561
     20  C         -0.3490   32.8390  136.1760 C.2     8  VAL8        0.2260
     21  O          0.7090   32.2760  136.4480 O.2     8  VAL8       -0.2867
     22  CB        -2.0900   31.8230  134.6970 C.3     8  VAL8        0.0252
     23  CG1       -0.9520   31.2040  133.8970 C.3     8  VAL8        0.0019
     24  CG2       -3.2980   30.9040  134.6820 C.3     8  VAL8        0.0019
     25  N          3.9190   31.8070  137.0030 N.3    12  TYR12      -0.1241
     26  CA         4.9190   31.8110  135.9320 C.3    12  TYR12       0.1605
     27  C          5.6310   33.1160  135.5950 C.2    12  TYR12       0.2264
     28  O          6.6850   33.0910  134.9550 O.2    12  TYR12      -0.2867
     29  CB         4.3140   31.2170  134.6580 C.3    12  TYR12       0.0534
     30  CG         3.6610   29.8720  134.8910 C.ar   12  TYR12      -0.0201
     31  CD1        2.3050   29.7810  135.1990 C.ar   12  TYR12      -0.0009
     32  CD2        4.4070   28.6930  134.8470 C.ar   12  TYR12      -0.0009
     33  CE1        1.7040   28.5490  135.4590 C.ar   12  TYR12       0.0417
     34  CE2        3.8140   27.4570  135.1060 C.ar   12  TYR12       0.0417
     35  CZ         2.4630   27.3920  135.4120 C.ar   12  TYR12       0.1957
     36  OH         1.8670   26.1750  135.6710 O.3    12  TYR12      -0.2866
     37  N          8.3740   22.3970  132.0440 N.3    29  TYR29      -0.1241
     38  CA         7.8180   22.4440  133.3930 C.3    29  TYR29       0.1605
     39  C          6.6280   21.4920  133.5020 C.2    29  TYR29       0.2264
     40  O          5.4810   21.9160  133.6350 O.2    29  TYR29      -0.2867
     41  CB         7.4080   23.8950  133.6810 C.3    29  TYR29       0.0534
     42  CG         7.2040   24.2790  135.1340 C.ar   29  TYR29      -0.0201
     43  CD1        7.5730   23.4280  136.1750 C.ar   29  TYR29      -0.0009
     44  CD2        6.6500   25.5170  135.4620 C.ar   29  TYR29      -0.0009
     45  CE1        7.3950   23.8030  137.5130 C.ar   29  TYR29       0.0417
     46  CE2        6.4680   25.9000  136.7930 C.ar   29  TYR29       0.0417
     47  CZ         6.8420   25.0390  137.8110 C.ar   29  TYR29       0.1957
     48  OH         6.6580   25.4160  139.1260 O.3    29  TYR29      -0.2866
     49  N         -1.5420   24.3680  123.5740 N.3    67  VAL67      -0.1231
     50  CA        -2.2920   25.1210  124.5770 C.3    67  VAL67       0.1692
     51  C         -1.5310   25.1310  125.8960 C.2    67  VAL67       0.2592
     52  O         -1.4400   24.1140  126.5790 O.2    67  VAL67      -0.2718
     53  CB        -3.6900   24.5050  124.7970 C.3    67  VAL67       0.0266
     54  CG1       -4.4660   25.3150  125.8240 C.3    67  VAL67       0.0020
     55  CG2       -4.4390   24.4600  123.4840 C.3    67  VAL67       0.0020
     56  N         -0.9930   26.2930  126.2510 N.am   68  GLY68      -0.1957
     57  CA        -0.2110   26.4040  127.4680 C.3    68  GLY68       0.1869
     58  C          1.2040   25.9890  127.1260 C.2    68  GLY68       0.2309
     59  O          1.8070   25.1590  127.8040 O.2    68  GLY68      -0.2863
     60  N          4.0420   27.1090  127.6160 N.3    70  GLY70      -0.1225
     61  CA         5.1380   27.2990  128.5480 C.3    70  GLY70       0.1811
     62  C          6.2690   28.0940  127.9240 C.2    70  GLY70       0.2280
     63  O          6.0280   29.1020  127.2620 O.2    70  GLY70      -0.2866
     64  N          0.0120   29.0040  122.8910 N.3    89  LEU89      -0.1231
     65  CA        -0.7830   29.9070  123.7180 C.3    89  LEU89       0.1693
     66  C         -0.3100   29.8850  125.1650 C.2    89  LEU89       0.2593
     67  O          0.0150   28.8270  125.6980 O.2    89  LEU89      -0.2718
     68  CB        -2.2570   29.4980  123.6630 C.3    89  LEU89       0.0284
     69  CG        -2.9070   29.4180  122.2790 C.3    89  LEU89       0.0019
     70  CD1       -4.3380   28.8940  122.4100 C.3    89  LEU89       0.0001
     71  CD2       -2.8890   30.7980  121.6300 C.3    89  LEU89       0.0001
     72  N         -0.2630   31.0560  125.7950 N.am   90  THR90      -0.1939
     73  CA         0.1620   31.1630  127.1900 C.3    90  THR90       0.2028
     74  C         -0.3070   32.4750  127.8160 C.2    90  THR90       0.2642
     75  O         -0.3520   33.5100  127.1500 O.2    90  THR90      -0.2714
     76  CB         1.6930   31.0940  127.3350 C.3    90  THR90       0.1808
     77  OG1        2.0380   31.1600  128.7240 O.3    90  THR90      -0.2208
     78  CG2        2.3570   32.2620  126.6130 C.3    90  THR90       0.0379
     79  N         -0.6450   32.4300  129.1000 N.am   91  LEU91      -0.1963
     80  CA        -1.1070   33.6180  129.8070 C.3    91  LEU91       0.1728
     81  C          0.0550   34.3140  130.5020 C.2    91  LEU91       0.2616
     82  O         -0.1190   35.3680  131.1160 O.2    91  LEU91      -0.2715
     83  CB        -2.1650   33.2340  130.8460 C.3    91  LEU91       0.0311
     84  CG        -3.3130   32.3600  130.3360 C.3    91  LEU91       0.0022
     85  CD1       -4.3280   32.1470  131.4570 C.3    91  LEU91       0.0001
     86  CD2       -3.9660   33.0220  129.1280 C.3    91  LEU91       0.0001
     87  N          1.2410   33.7200  130.3960 N.am   92  SER92      -0.1950
     88  CA         2.4380   34.2620  131.0260 C.3    92  SER92       0.1924
     89  C          3.1540   35.2840  130.1460 C.2    92  SER92       0.2314
     90  O          3.5790   34.9710  129.0340 O.2    92  SER92      -0.2863
     91  CB         3.3980   33.1190  131.3730 C.3    92  SER92       0.2116
     92  OG         4.5970   33.6070  131.9390 O.3    92  SER92      -0.2180
     93  N          6.7510   34.2550  129.4910 N.3    95  GLN95      -0.1245
     94  CA         6.8520   33.1080  128.5990 C.3    95  GLN95       0.1566
     95  C          6.5830   33.5550  127.1720 C.2    95  GLN95       0.2260
     96  O          7.2650   33.1260  126.2410 O.2    95  GLN95      -0.2867
     97  CB         5.8570   32.0210  129.0060 C.3    95  GLN95       0.0367
     98  CG         6.1260   31.4330  130.3870 C.3    95  GLN95       0.0905
     99  CD         5.2320   30.2520  130.6990 C.2    95  GLN95       0.2608
    100  OE1        4.0910   30.1930  130.2500 O.2    95  GLN95      -0.2717
    101  NE2        5.7420   29.3110  131.4850 N.am   95  GLN95      -0.0878
    102  N         -2.4340   34.8500  125.0700 N.3   117  ALA117     -0.1231
    103  CA        -3.8800   34.7020  125.1480 C.3   117  ALA117      0.1694
    104  C         -4.2360   33.2890  125.5830 C.2   117  ALA117      0.2593
    105  O         -3.4060   32.3830  125.5160 O.2   117  ALA117     -0.2718
    106  CB        -4.5000   34.9930  123.7940 C.3   117  ALA117      0.0304
    107  N         -5.4730   33.1040  126.0310 N.am  118  GLY118     -0.1942
    108  CA        -5.9110   31.7860  126.4550 C.3   118  GLY118      0.2014
    109  C         -6.7050   31.1260  125.3470 C.2   118  GLY118      0.2639
    110  O         -7.1180   31.7970  124.3990 O.2   118  GLY118     -0.2714
    111  N         -6.9170   29.8170  125.4400 N.am  119  TRP119     -0.1959
    112  CA        -7.6910   29.1290  124.4140 C.3   119  TRP119      0.1771
    113  C         -9.0740   29.7700  124.3460 C.2   119  TRP119      0.2619
    114  O         -9.7780   29.6430  123.3460 O.2   119  TRP119     -0.2715
    115  CB        -7.8350   27.6370  124.7340 C.3   119  TRP119      0.0590
    116  CG        -8.3370   27.3580  126.1180 C.ar  119  TRP119      0.0006
    117  CD1       -7.5830   27.1410  127.2350 C.ar  119  TRP119      0.0946
    118  CD2       -9.7050   27.2800  126.5370 C.ar  119  TRP119      0.0152
    119  NE1       -8.3940   26.9310  128.3240 N.ar  119  TRP119     -0.2442
    120  CE2       -9.7030   27.0110  127.9250 C.ar  119  TRP119      0.0810
    121  CE3      -10.9340   27.4120  125.8760 C.ar  119  TRP119      0.0012
    122  CZ2      -10.8830   26.8710  128.6650 C.ar  119  TRP119      0.0191
    123  CZ3      -12.1100   27.2720  126.6140 C.ar  119  TRP119      0.0001
    124  CH2      -12.0730   27.0030  127.9940 C.ar  119  TRP119      0.0015
    125  N         -9.4500   30.4570  125.4230 N.am  120  GLU120     -0.1977
    126  CA       -10.7430   31.1290  125.5050 C.3   120  GLU120      0.1602
    127  C        -10.8430   32.2540  124.4800 C.2   120  GLU120      0.2287
    128  O        -11.9390   32.6910  124.1370 O.2   120  GLU120     -0.2864
    129  CB       -10.9600   31.7250  126.9010 C.3   120  GLU120      0.0415
    130  CG       -11.0290   30.7260  128.0560 C.3   120  GLU120      0.1163
    131  CD        -9.6790   30.4650  128.7060 C.2   120  GLU120      0.3649
    132  OE1       -9.6640   30.0630  129.8880 O.co2 120  GLU120     -0.2457
    133  OE2       -8.6360   30.6530  128.0400 O.co2 120  GLU120     -0.2457
    134  N          0.0710   20.1590  127.6250 N.3   132  ILE132     -0.1231
    135  CA         0.7520   19.5050  128.7280 C.3   132  ILE132      0.1692
    136  C          0.8050   20.3710  129.9800 C.2   132  ILE132      0.2593
    137  O          1.4170   21.4400  129.9840 O.2   132  ILE132     -0.2718
    138  CB         2.1950   19.1230  128.3170 C.3   132  ILE132      0.0266
    139  CG1        2.1500   18.1680  127.1210 C.3   132  ILE132      0.0019
    140  CG2        2.9220   18.4760  129.4910 C.3   132  ILE132      0.0020
    141  CD1        3.4470   18.0600  126.3610 C.3   132  ILE132      0.0001
    142  N          0.1500   19.9050  131.0390 N.am  133  GLY133     -0.1942
    143  CA         0.1580   20.6290  132.2960 C.3   133  GLY133      0.2014
    144  C         -0.4930   21.9960  132.3070 C.2   133  GLY133      0.2638
    145  O         -0.1150   22.8460  133.1090 O.2   133  GLY133     -0.2714
    146  N         -1.4620   22.2240  131.4260 N.am  134  ALA134     -0.1977
    147  CA        -2.1570   23.5090  131.3890 C.3   134  ALA134      0.1597
    148  C         -3.5810   23.3190  131.9100 C.2   134  ALA134      0.2287
    149  O         -4.1660   24.2170  132.5230 O.2   134  ALA134     -0.2864
    150  CB        -2.1870   24.0540  129.9650 C.3   134  ALA134      0.0319
    151  N         -5.0420   24.4060  135.1960 N.3   137  HIS137     -0.1226
    152  CA        -5.2860   25.8330  135.4020 C.3   137  HIS137      0.1752
    153  C         -6.6420   26.2840  134.8630 C.2   137  HIS137      0.2596
    154  O         -7.0900   27.3950  135.1520 O.2   137  HIS137     -0.2718
    155  CB        -4.1960   26.6590  134.7130 C.3   137  HIS137      0.0759
    156  CG        -2.8850   26.6640  135.4330 C.ar  137  HIS137      0.0818
    157  ND1       -2.7020   27.3040  136.6390 N.ar  137  HIS137     -0.2268
    158  CD2       -1.6870   26.1190  135.1110 C.ar  137  HIS137      0.1154
    159  CE1       -1.4480   27.1560  137.0290 C.ar  137  HIS137      0.1986
    160  NE2       -0.8110   26.4410  136.1190 N.ar  137  HIS137     -0.2212
    161  N         -7.2870   25.4250  134.0800 N.am  138  PHE138     -0.1976
    162  CA        -8.5710   25.7580  133.4710 C.3   138  PHE138      0.1639
    163  C         -9.7300   25.8640  134.4610 C.2   138  PHE138      0.2290
    164  O        -10.5590   26.7710  134.3550 O.2   138  PHE138     -0.2864
    165  CB        -8.9350   24.7240  132.3900 C.3   138  PHE138      0.0560
    166  CG        -7.9440   24.6360  131.2490 C.ar  138  PHE138     -0.0200
    167  CD1       -6.8440   25.4890  131.1770 C.ar  138  PHE138     -0.0042
    168  CD2       -8.1270   23.7000  130.2360 C.ar  138  PHE138     -0.0042
    169  CE1       -5.9450   25.4110  130.1110 C.ar  138  PHE138     -0.0003
    170  CE2       -7.2340   23.6130  129.1680 C.ar  138  PHE138     -0.0003
    171  CZ        -6.1420   24.4720  129.1070 C.ar  138  PHE138     -0.0000
@<TRIPOS>BOND
     1    71    69    1
     2    69    70    1
     3    69    68    1
     4    64    65    1
     5   114   113    2
     6    55    53    1
     7    49    50    1
     8    68    65    1
     9    65    66    1
    10   106   103    1
    11   128   127    2
    12   113   112    1
    13   113   125   am
    14   110   109    2
    15   112   115    1
    16   112   111    1
    17   127   126    1
    18    50    53    1
    19    50    51    1
    20   115   116    1
    21    53    54    1
    22   102   103    1
    23   103   104    1
    24    66    67    2
    25    66    72   am
    26   109   111   am
    27   109   108    1
    28   125   126    1
    29   126   129    1
    30   105   104    2
    31   104   107   am
    32    72    73    1
    33   121   118   ar
    34   121   123   ar
    35    51    56   am
    36    51    52    2
    37   107   108    1
    38   116   118   ar
    39   116   117   ar
    40    96    95    2
    41    56    57    1
    42   141   139    1
    43   118   120   ar
    44    78    76    1
    45   123   124   ar
    46   129   130    1
    47   139   138    1
    48    58    57    1
    49    58    59    2
    50    75    74    2
    51    95    94    1
    52    73    76    1
    53    73    74    1
    54   117   119   ar
    55    63    62    2
    56    76    77    1
    57    60    61    1
    58   134   135    1
    59    74    79   am
    60    62    61    1
    61   120   119   ar
    62   120   122   ar
    63   124   122   ar
    64   133   131   ar
    65   130   131    1
    66   138   135    1
    67   138   140    1
    68     6     7    1
    69     6     5    1
    70    94    97    1
    71    94    93    1
    72   131   132   ar
    73   135   136    1
    74     7     1    1
    75    97    98    1
    76    90    89    2
    77    79    80    1
    78   171   170   ar
    79   171   169   ar
    80    86    84    1
    81   170   168   ar
    82    80    81    1
    83    80    83    1
    84     5     2    1
    85   150   147    1
    86   136   137    2
    87   136   142   am
    88   169   167   ar
    89    89    88    1
    90   168   166   ar
    91   100    99    2
    92     1     2    1
    93    84    83    1
    94    84    85    1
    95    98    99    1
    96    87    81   am
    97    87    88    1
    98    81    82    2
    99    99   101   am
   100     2     3    1
   101    88    91    1
   102   142   143    1
   103   167   166   ar
   104   166   165    1
   105    91    92    1
   106   147   146    1
   107   147   148    1
   108   146   144   am
   109   148   149    2
   110    37    38    1
   111     3     4    2
   112     3     8   am
   113   143   144    1
   114   144   145    2
   115   165   162    1
   116     8     9    1
   117    38    39    1
   118    38    41    1
   119   162   161    1
   120   162   163    1
   121    39    40    2
   122    41    42    1
   123    23    22    1
   124   161   153   am
   125   164   163    2
   126    10     9    1
   127    10    11    2
   128     9    12    1
   129    29    30    1
   130    29    26    1
   131    24    22    1
   132    22    19    1
   133   155   152    1
   134   155   156    1
   135    14    16   ar
   136    14    13   ar
   137    32    30   ar
   138    32    34   ar
   139   153   154    2
   140   153   152    1
   141    30    31   ar
   142    28    27    2
   143    16    17   ar
   144    34    35   ar
   145   158   156   ar
   146   158   160   ar
   147    42    44   ar
   148    42    43   ar
   149   151   152    1
   150    31    33   ar
   151    35    33   ar
   152    35    36    1
   153   156   157   ar
   154    44    46   ar
   155    12    13    1
   156    13    15   ar
   157    27    26    1
   158    26    25    1
   159    17    15   ar
   160   160   159   ar
   161    19    20    1
   162    19    18    1
   163    43    45   ar
   164    20    21    2
   165   157   159   ar
   166    46    47   ar
   167    45    47   ar
   168    47    48    1
