@<TRIPOS>MOLECULE
tmp/1kphC01.pdb
 219 213 0 0 0
SMALL
GASTEIGER

@<TRIPOS>ATOM
      1  N         41.4170   71.1590  136.7500 N.3    14  TYR14      -0.1241
      2  CA        42.3900   71.2000  135.6580 C.3    14  TYR14       0.1605
      3  C         43.1610   72.4900  135.4170 C.2    14  TYR14       0.2264
      4  O         44.2060   72.4610  134.7680 O.2    14  TYR14      -0.2867
      5  CB        41.7320   70.7360  134.3540 C.3    14  TYR14       0.0534
      6  CG        41.0570   69.3920  134.5170 C.ar   14  TYR14      -0.0201
      7  CD1       39.6780   69.3080  134.7200 C.ar   14  TYR14      -0.0009
      8  CD2       41.8090   68.2160  134.5860 C.ar   14  TYR14      -0.0009
      9  CE1       39.0590   68.0910  134.9970 C.ar   14  TYR14       0.0417
     10  CE2       41.1990   66.9880  134.8680 C.ar   14  TYR14       0.0417
     11  CZ        39.8200   66.9400  135.0750 C.ar   14  TYR14       0.1957
     12  OH        39.2060   65.7590  135.3850 O.3    14  TYR14      -0.2866
     13  N         45.8180   62.0270  131.5590 N.3    31  TYR31      -0.1227
     14  CA        45.2350   62.0350  132.8970 C.3    31  TYR31       0.1736
     15  C         44.0360   61.0900  132.9650 C.2    31  TYR31       0.2596
     16  O         42.8920   61.5200  133.1430 O.2    31  TYR31      -0.2718
     17  CB        44.8190   63.4740  133.2230 C.3    31  TYR31       0.0548
     18  CG        44.6360   63.8120  134.6900 C.ar   31  TYR31      -0.0200
     19  CD1       44.2500   65.0990  135.0720 C.ar   31  TYR31      -0.0009
     20  CD2       44.8290   62.8580  135.6880 C.ar   31  TYR31      -0.0009
     21  CE1       44.0550   65.4310  136.4140 C.ar   31  TYR31       0.0417
     22  CE2       44.6400   63.1800  137.0390 C.ar   31  TYR31       0.0417
     23  CZ        44.2530   64.4680  137.3900 C.ar   31  TYR31       0.1957
     24  OH        44.0610   64.7930  138.7160 O.3    31  TYR31      -0.2866
     25  N         44.3110   59.7970  132.8150 N.am   32  SER32      -0.1952
     26  CA        43.2790   58.7670  132.8480 C.3    32  SER32       0.1924
     27  C         43.9450   57.3980  133.0050 C.2    32  SER32       0.2314
     28  O         45.1710   57.2930  132.9370 O.2    32  SER32      -0.2863
     29  CB        42.4310   58.8300  131.5680 C.3    32  SER32       0.2116
     30  OG        43.2470   58.8950  130.4080 O.3    32  SER32      -0.2180
     31  N         37.5300   60.1460  126.8690 N.3   134  ILE134     -0.1231
     32  CA        38.1680   59.4210  127.9570 C.3   134  ILE134      0.1692
     33  C         38.2410   60.2540  129.2410 C.2   134  ILE134      0.2592
     34  O         38.9180   61.2830  129.2870 O.2   134  ILE134     -0.2718
     35  CB        39.6000   59.0020  127.5430 C.3   134  ILE134      0.0266
     36  CG1       39.5400   58.1440  126.2670 C.3   134  ILE134      0.0019
     37  CG2       40.2790   58.2430  128.6850 C.3   134  ILE134      0.0020
     38  CD1       40.8790   58.0240  125.5200 C.3   134  ILE134      0.0001
     39  N         37.5350   59.8060  130.2740 N.am  135  GLY135     -0.1957
     40  CA        37.5440   60.5020  131.5550 C.3   135  GLY135      0.1869
     41  C         36.8930   61.8760  131.6220 C.2   135  GLY135      0.2309
     42  O         37.2310   62.6780  132.4970 O.2   135  GLY135     -0.2863
     43  N         32.5340   61.7420  133.5190 N.3   138  GLU138     -0.1231
     44  CA        32.3710   61.8980  134.9550 C.3   138  GLU138      0.1699
     45  C         32.1010   63.3410  135.3700 C.2   138  GLU138      0.2592
     46  O         31.6400   63.5890  136.4860 O.2   138  GLU138     -0.2718
     47  CB        33.6130   61.3670  135.6870 C.3   138  GLU138      0.0402
     48  CG        33.9370   59.9010  135.3920 C.3   138  GLU138      0.1161
     49  CD        34.8330   59.7190  134.1720 C.2   138  GLU138      0.3649
     50  OE1       34.6170   60.4020  133.1490 O.co2 138  GLU138     -0.2457
     51  OE2       35.7520   58.8750  134.2290 O.co2 138  GLU138     -0.2457
     52  N         32.3770   64.2840  134.4730 N.am  139  HIS139     -0.1976
     53  CA        32.1590   65.7130  134.7340 C.3   139  HIS139      0.1656
     54  C         30.8730   66.2570  134.0970 C.2   139  HIS139      0.2291
     55  O         30.4690   67.3940  134.3650 O.2   139  HIS139     -0.2864
     56  CB        33.3220   66.5380  134.1740 C.3   139  HIS139      0.0771
     57  CG        34.6010   66.4050  134.9420 C.ar  139  HIS139      0.0820
     58  ND1       34.7660   66.9240  136.2080 N.ar  139  HIS139     -0.2267
     59  CD2       35.7800   65.8260  134.6150 C.ar  139  HIS139      0.1154
     60  CE1       35.9930   66.6690  136.6280 C.ar  139  HIS139      0.1986
     61  NE2       36.6290   66.0040  135.6790 N.ar  139  HIS139     -0.2212
     62  N         34.9420   56.0930  134.2450 N.3   167  ILE167     -0.1245
     63  CA        34.9930   55.4050  135.5200 C.3   167  ILE167      0.1561
     64  C         33.5290   55.0910  135.8310 C.2   167  ILE167      0.2260
     65  O         32.6340   55.8260  135.4150 O.2   167  ILE167     -0.2867
     66  CB        35.5460   56.3400  136.6120 C.3   167  ILE167      0.0252
     67  CG1       37.0280   56.6110  136.3590 C.3   167  ILE167      0.0019
     68  CG2       35.3130   55.7460  137.9960 C.3   167  ILE167      0.0019
     69  CD1       37.5760   57.7450  137.1720 C.3   167  ILE167      0.0001
     70  N         34.2300   54.3710  152.4650 N.3   186  PHE186     -0.1241
     71  CA        34.1570   54.6490  151.0350 C.3   186  PHE186      0.1605
     72  C         33.2380   55.8380  150.7930 C.2   186  PHE186      0.2264
     73  O         33.5110   56.6750  149.9370 O.2   186  PHE186     -0.2867
     74  CB        33.6360   53.4190  150.2810 C.3   186  PHE186      0.0534
     75  CG        33.3800   53.6630  148.8160 C.ar  186  PHE186     -0.0203
     76  CD1       34.3650   54.2180  148.0030 C.ar  186  PHE186     -0.0042
     77  CD2       32.1560   53.3240  148.2470 C.ar  186  PHE186     -0.0042
     78  CE1       34.1340   54.4310  146.6400 C.ar  186  PHE186     -0.0003
     79  CE2       31.9140   53.5310  146.8880 C.ar  186  PHE186     -0.0003
     80  CZ        32.9060   54.0860  146.0840 C.ar  186  PHE186     -0.0000
     81  N         34.9870   58.9180  151.6900 N.3   189  PHE189     -0.1227
     82  CA        35.9910   59.2740  150.6950 C.3   189  PHE189      0.1736
     83  C         35.3250   59.9690  149.5020 C.2   189  PHE189      0.2595
     84  O         35.8590   60.9350  148.9640 O.2   189  PHE189     -0.2718
     85  CB        36.7380   58.0300  150.2180 C.3   189  PHE189      0.0547
     86  CG        37.9040   58.3350  149.3300 C.ar  189  PHE189     -0.0202
     87  CD1       39.0070   59.0300  149.8240 C.ar  189  PHE189     -0.0042
     88  CD2       37.8960   57.9450  147.9950 C.ar  189  PHE189     -0.0042
     89  CE1       40.0900   59.3340  148.9950 C.ar  189  PHE189     -0.0003
     90  CE2       38.9710   58.2440  147.1600 C.ar  189  PHE189     -0.0003
     91  CZ        40.0680   58.9400  147.6600 C.ar  189  PHE189     -0.0000
     92  N         34.1620   59.4680  149.0970 N.am  190  LEU190     -0.1980
     93  CA        33.4220   60.0470  147.9820 C.3   190  LEU190      0.1596
     94  C         33.1330   61.5090  148.2650 C.2   190  LEU190      0.2287
     95  O         33.2590   62.3580  147.3890 O.2   190  LEU190     -0.2864
     96  CB        32.0970   59.3130  147.7700 C.3   190  LEU190      0.0297
     97  CG        32.1520   57.8470  147.3550 C.3   190  LEU190      0.0022
     98  CD1       30.7360   57.3190  147.1840 C.3   190  LEU190      0.0001
     99  CD2       32.9250   57.7100  146.0680 C.3   190  LEU190      0.0001
    100  N         36.2450   63.5520  147.7150 N.3   193  ILE193     -0.1231
    101  CA        36.5030   63.7280  146.2900 C.3   193  ILE193      0.1692
    102  C         35.6060   64.7920  145.6590 C.2   193  ILE193      0.2591
    103  O         36.0920   65.7310  145.0140 O.2   193  ILE193     -0.2718
    104  CB        36.3150   62.3950  145.5240 C.3   193  ILE193      0.0266
    105  CG1       37.3220   61.3520  146.0270 C.3   193  ILE193      0.0019
    106  CG2       36.4800   62.6270  144.0300 C.3   193  ILE193      0.0020
    107  CD1       38.7870   61.7530  145.8670 C.3   193  ILE193      0.0001
    108  N         34.2980   64.6550  145.8420 N.am  194  VAL194     -0.1980
    109  CA        33.3750   65.6200  145.2560 C.3   194  VAL194      0.1595
    110  C         33.5330   67.0120  145.8670 C.2   194  VAL194      0.2287
    111  O         33.4050   68.0240  145.1760 O.2   194  VAL194     -0.2864
    112  CB        31.9110   65.1560  145.4110 C.3   194  VAL194      0.0276
    113  CG1       31.4530   65.3300  146.8520 C.3   194  VAL194      0.0022
    114  CG2       31.0210   65.9250  144.4560 C.3   194  VAL194      0.0022
    115  N         36.9260   66.9890  142.7780 N.3   198  PHE198     -0.1241
    116  CA        36.1360   67.1260  141.5610 C.3   198  PHE198      0.1605
    117  C         34.7240   67.6430  141.7930 C.2   198  PHE198      0.2264
    118  O         33.7660   66.8780  141.7190 O.2   198  PHE198     -0.2867
    119  CB        36.0500   65.7760  140.8270 C.3   198  PHE198      0.0534
    120  CG        37.3820   65.2240  140.3910 C.ar  198  PHE198     -0.0203
    121  CD1       37.8440   64.0070  140.8980 C.ar  198  PHE198     -0.0042
    122  CD2       38.1680   65.9060  139.4690 C.ar  198  PHE198     -0.0042
    123  CE1       39.0710   63.4780  140.4910 C.ar  198  PHE198     -0.0003
    124  CE2       39.4000   65.3850  139.0550 C.ar  198  PHE198     -0.0003
    125  CZ        39.8510   64.1720  139.5670 C.ar  198  PHE198     -0.0000
    126  N         31.4030   66.4000  140.0030 N.3   201  GLY201     -0.1210
    127  CA        31.6380   65.0610  139.4990 C.3   201  GLY201      0.1956
    128  C         30.6140   64.0440  139.9530 C.2   201  GLY201      0.2612
    129  O         30.0270   64.1790  141.0260 O.2   201  GLY201     -0.2717
    130  N         30.3970   63.0220  139.1320 N.am  202  ARG202     -0.1965
    131  CA        29.4410   61.9750  139.4620 C.3   202  ARG202      0.1729
    132  C         29.7820   60.7170  138.6860 C.2   202  ARG202      0.2616
    133  O         30.0260   60.7670  137.4790 O.2   202  ARG202     -0.2715
    134  CB        28.0200   62.4240  139.1160 C.3   202  ARG202      0.0348
    135  CG        26.9510   61.7190  139.9260 C.3   202  ARG202      0.0492
    136  CD        25.9820   62.7300  140.5340 C.3   202  ARG202      0.2205
    137  NE        25.1830   62.1470  141.6100 N.pl3 202  ARG202     -0.0865
    138  CZ        24.4030   62.8490  142.4280 C.cat 202  ARG202      0.5346
    139  NH1       24.3100   64.1660  142.2950 N.pl3 202  ARG202      0.1354
    140  NH2       23.7260   62.2360  143.3910 N.pl3 202  ARG202      0.1354
    141  N         29.8050   59.5890  139.3860 N.am  203  LEU203     -0.1977
    142  CA        30.1170   58.3200  138.7620 C.3   203  LEU203      0.1596
    143  C         28.8500   57.5740  138.3880 C.2   203  LEU203      0.2287
    144  O         27.9770   57.3490  139.2250 O.2   203  LEU203     -0.2864
    145  CB        30.9550   57.4500  139.7000 C.3   203  LEU203      0.0297
    146  CG        32.3370   57.9840  140.0860 C.3   203  LEU203      0.0022
    147  CD1       33.0800   56.9150  140.8630 C.3   203  LEU203      0.0001
    148  CD2       33.1210   58.3650  138.8360 C.3   203  LEU203      0.0001
    149  N         44.0480   50.6530  136.8700 N.3   230  TYR230     -0.1241
    150  CA        43.9610   51.9600  137.5210 C.3   230  TYR230      0.1605
    151  C         44.6670   52.0320  138.8690 C.2   230  TYR230      0.2264
    152  O         45.2670   53.0510  139.2000 O.2   230  TYR230     -0.2867
    153  CB        42.5000   52.4180  137.6630 C.3   230  TYR230      0.0534
    154  CG        42.3160   53.8780  137.2760 C.ar  230  TYR230     -0.0201
    155  CD1       41.0980   54.3480  136.7810 C.ar  230  TYR230     -0.0009
    156  CD2       43.3910   54.7660  137.3220 C.ar  230  TYR230     -0.0009
    157  CE1       40.9650   55.6730  136.3250 C.ar  230  TYR230      0.0417
    158  CE2       43.2690   56.0830  136.8750 C.ar  230  TYR230      0.0417
    159  CZ        42.0570   56.5260  136.3730 C.ar  230  TYR230      0.1957
    160  OH        41.9640   57.8110  135.8900 O.3   230  TYR230     -0.2866
    161  N         47.4200   54.8890  139.4570 N.3   234  LEU234     -0.1245
    162  CA        47.3880   55.8160  140.5780 C.3   234  LEU234      0.1561
    163  C         48.5990   55.6350  141.4970 C.2   234  LEU234      0.2260
    164  O         49.1340   56.6140  142.0210 O.2   234  LEU234     -0.2867
    165  CB        46.0680   55.6500  141.3440 C.3   234  LEU234      0.0270
    166  CG        44.8600   56.2140  140.5750 C.3   234  LEU234      0.0019
    167  CD1       43.5590   55.5050  140.9720 C.3   234  LEU234      0.0001
    168  CD2       44.7690   57.7030  140.8410 C.3   234  LEU234      0.0001
    169  N         51.3790   57.4890  139.8900 N.3   237  TRP237     -0.1241
    170  CA        51.2100   58.9340  139.9900 C.3   237  TRP237      0.1605
    171  C         51.5700   59.4080  141.4000 C.2   237  TRP237      0.2264
    172  O         52.2970   60.3860  141.5660 O.2   237  TRP237     -0.2867
    173  CB        49.7640   59.3530  139.6770 C.3   237  TRP237      0.0550
    174  CG        49.3640   59.2440  138.2210 C.ar  237  TRP237      0.0003
    175  CD1       50.1950   59.1350  137.1360 C.ar  237  TRP237      0.0946
    176  CD2       48.0300   59.2770  137.7000 C.ar  237  TRP237      0.0152
    177  NE1       49.4560   59.0970  135.9740 N.ar  237  TRP237     -0.2442
    178  CE2       48.1260   59.1800  136.2920 C.ar  237  TRP237      0.0810
    179  CE3       46.7620   59.3790  138.2880 C.ar  237  TRP237      0.0012
    180  CZ2       46.9980   59.1800  135.4630 C.ar  237  TRP237      0.0191
    181  CZ3       45.6400   59.3780  137.4620 C.ar  237  TRP237      0.0001
    182  CH2       45.7680   59.2780  136.0650 C.ar  237  TRP237      0.0015
    183  N         44.0510   62.1960  147.7820 N.3   263  TYR263     -0.1241
    184  CA        43.2050   61.8680  146.6400 C.3   263  TYR263      0.1605
    185  C         43.7710   60.7140  145.8110 C.2   263  TYR263      0.2264
    186  O         43.1020   59.6930  145.6230 O.2   263  TYR263     -0.2867
    187  CB        42.9870   63.1500  145.7980 C.3   263  TYR263      0.0534
    188  CG        42.9930   63.0090  144.2810 C.ar  263  TYR263     -0.0201
    189  CD1       42.1650   62.0940  143.6260 C.ar  263  TYR263     -0.0009
    190  CD2       43.8020   63.8380  143.5010 C.ar  263  TYR263     -0.0009
    191  CE1       42.1460   62.0100  142.2220 C.ar  263  TYR263      0.0417
    192  CE2       43.7920   63.7650  142.1020 C.ar  263  TYR263      0.0417
    193  CZ        42.9660   62.8500  141.4720 C.ar  263  TYR263      0.1957
    194  OH        42.9850   62.7610  140.1000 O.3   263  TYR263     -0.2866
    195  N         42.2330   56.8820  145.8580 N.3   267  CYS267     -0.1235
    196  CA        41.5980   56.3150  144.6750 C.3   267  CYS267      0.1677
    197  C         42.2450   54.9810  144.3060 C.2   267  CYS267      0.2270
    198  O         41.5630   54.0490  143.8760 O.2   267  CYS267     -0.2867
    199  CB        41.6770   57.2970  143.4990 C.3   267  CYS267      0.0956
    200  SG        40.5850   58.7410  143.6860 S.3   267  CYS267     -0.0801
    201  N         40.1860   51.2940  143.8580 N.3   271  PHE271     -0.1241
    202  CA        40.2610   50.4650  142.6610 C.3   271  PHE271      0.1605
    203  C         40.8550   49.1160  143.0320 C.2   271  PHE271      0.2264
    204  O         40.4190   48.0800  142.5330 O.2   271  PHE271     -0.2867
    205  CB        41.1290   51.1150  141.5820 C.3   271  PHE271      0.0534
    206  CG        40.4170   52.1700  140.7920 C.ar  271  PHE271     -0.0203
    207  CD1       40.6680   53.5180  141.0180 C.ar  271  PHE271     -0.0042
    208  CD2       39.4610   51.8140  139.8460 C.ar  271  PHE271     -0.0042
    209  CE1       39.9740   54.4970  140.3150 C.ar  271  PHE271     -0.0003
    210  CE2       38.7610   52.7830  139.1390 C.ar  271  PHE271     -0.0003
    211  CZ        39.0160   54.1260  139.3750 C.ar  271  PHE271     -0.0000
    212  N         35.3130   50.7370  142.8360 N.3   276  ILE276     -0.1245
    213  CA        35.1300   51.5410  141.6370 C.3   276  ILE276      0.1561
    214  C         35.7820   50.8160  140.4740 C.2   276  ILE276      0.2260
    215  O         36.7290   50.0480  140.6510 O.2   276  ILE276     -0.2867
    216  CB        35.7080   52.9650  141.7900 C.3   276  ILE276      0.0252
    217  CG1       37.1050   52.9160  142.4020 C.3   276  ILE276      0.0019
    218  CG2       34.7650   53.8050  142.6440 C.3   276  ILE276      0.0019
    219  CD1       37.6670   54.2900  142.7330 C.3   276  ILE276      0.0001
@<TRIPOS>BOND
     1    38    36    1
     2    36    35    1
     3    31    32    1
     4    35    32    1
     5    35    37    1
     6    32    33    1
     7    33    34    2
     8    33    39   am
     9    39    40    1
    10    30    29    1
    11    40    41    1
    12    13    14    1
    13    29    26    1
    14    41    42    2
    15    25    26    1
    16    25    15   am
    17    26    27    1
    18    14    15    1
    19    14    17    1
    20    28    27    2
    21    15    16    2
    22    50    49   ar
    23    17    18    1
    24    43    44    1
    25    54    55    2
    26    54    53    1
    27    49    51   ar
    28    49    48    1
    29    56    53    1
    30    56    57    1
    31    62    63    1
    32     5     6    1
    33     5     2    1
    34    52    53    1
    35    52    45   am
    36     6     8   ar
    37     6     7   ar
    38     8    10   ar
    39    59    57   ar
    40    59    61   ar
    41    18    19   ar
    42    18    20   ar
    43     7     9   ar
    44     4     3    2
    45    10    11   ar
    46    57    58   ar
    47    44    45    1
    48    44    47    1
    49     9    11   ar
    50    19    21   ar
    51    11    12    1
    52    45    46    2
    53    48    47    1
    54    65    64    2
    55     3     2    1
    56   180   182   ar
    57   180   178   ar
    58    63    64    1
    59    63    66    1
    60     2     1    1
    61    61    60   ar
    62    20    22   ar
    63   160   159    1
    64   177   178   ar
    65   177   175   ar
    66   182   181   ar
    67    58    60   ar
    68   178   176   ar
    69   157   159   ar
    70   157   155   ar
    71    67    66    1
    72    67    69    1
    73   159   158   ar
    74    21    23   ar
    75    66    68    1
    76   155   154   ar
    77   149   150    1
    78   158   156   ar
    79    22    23   ar
    80   175   174   ar
    81   154   156   ar
    82   154   153    1
    83    23    24    1
    84   181   179   ar
    85   133   132    2
    86   150   153    1
    87   150   151    1
    88   176   174   ar
    89   176   179   ar
    90   174   173    1
    91   143   142    1
    92   143   144    2
    93   132   141   am
    94   132   131    1
    95   142   141    1
    96   142   145    1
    97   148   146    1
    98   151   152    2
    99   124   122   ar
   100   124   125   ar
   101   134   131    1
   102   134   135    1
   103   130   131    1
   104   130   128   am
   105   210   211   ar
   106   210   208   ar
   107   211   209   ar
   108   161   162    1
   109   122   120   ar
   110   127   128    1
   111   127   126    1
   112   125   123   ar
   113   173   170    1
   114   145   146    1
   115   208   206   ar
   116   169   170    1
   117   135   136    1
   118   128   129    2
   119   170   171    1
   120   146   147    1
   121   194   193    1
   122   209   207   ar
   123   120   119    1
   124   120   121   ar
   125   214   215    2
   126   214   213    1
   127   123   121   ar
   128   136   137    1
   129   166   168    1
   130   166   167    1
   131   166   165    1
   132   162   165    1
   133   162   163    1
   134   206   207   ar
   135   206   205    1
   136   119   116    1
   137   171   172    2
   138   193   192   ar
   139   193   191   ar
   140   163   164    2
   141   116   117    1
   142   116   115    1
   143   205   202    1
   144   137   138    2
   145   213   216    1
   146   213   212    1
   147   118   117    2
   148   216   217    1
   149   216   218    1
   150   192   190   ar
   151   191   189   ar
   152   139   138    1
   153   217   219    1
   154   138   140    1
   155   204   203    2
   156   202   203    1
   157   202   201    1
   158   199   200    1
   159   199   196    1
   160   190   188   ar
   161   189   188   ar
   162   198   197    2
   163   106   104    1
   164   188   187    1
   165   197   196    1
   166   114   112    1
   167   196   195    1
   168   103   102    2
   169   111   110    2
   170   109   112    1
   171   109   108    1
   172   109   110    1
   173   112   113    1
   174   104   105    1
   175   104   101    1
   176   186   185    2
   177   102   108   am
   178   102   101    1
   179   187   184    1
   180   185   184    1
   181   107   105    1
   182    99    97    1
   183    80    78   ar
   184    80    79   ar
   185   101   100    1
   186    78    76   ar
   187   184   183    1
   188    79    77   ar
   189    90    91   ar
   190    90    88   ar
   191    98    97    1
   192    97    96    1
   193    95    94    2
   194    91    89   ar
   195    96    93    1
   196    93    94    1
   197    93    92    1
   198    88    86   ar
   199    76    75   ar
   200    77    75   ar
   201    75    74    1
   202    84    83    2
   203    89    87   ar
   204    92    83   am
   205    86    87   ar
   206    86    85    1
   207    83    82    1
   208    73    72    2
   209    85    82    1
   210    74    71    1
   211    82    81    1
   212    72    71    1
   213    71    70    1
