@<TRIPOS>MOLECULE
tmp/1kpiA00.pdb
 228 226 0 0 0
SMALL
GASTEIGER

@<TRIPOS>ATOM
      1  N        103.2010   43.7900   20.7080 N.3     5  PRO5       -0.2116
      2  CA       103.5620   42.4340   21.1430 C.3     5  PRO5        0.1372
      3  C        104.5140   41.7960   20.1290 C.2     5  PRO5        0.2244
      4  O        104.1250   40.8710   19.4170 O.2     5  PRO5       -0.2868
      5  CB       102.2190   41.6960   21.1620 C.3     5  PRO5        0.0268
      6  CG       101.1700   42.7770   20.9730 C.3     5  PRO5        0.0207
      7  CD       101.8440   43.8050   20.1420 C.3     5  PRO5        0.0892
      8  N        104.1680   37.9320   18.7130 N.3     9  VAL9       -0.1245
      9  CA       103.7680   37.8290   17.3170 C.3     9  VAL9        0.1561
     10  C        104.8140   37.1090   16.4640 C.2     9  VAL9        0.2260
     11  O        104.4670   36.2490   15.6540 O.2     9  VAL9       -0.2867
     12  CB       103.4690   39.2230   16.7250 C.3     9  VAL9        0.0252
     13  CG1      103.2060   39.1160   15.2290 C.3     9  VAL9        0.0019
     14  CG2      102.2640   39.8220   17.4230 C.3     9  VAL9        0.0019
     15  N        104.5140   33.9330   13.3670 N.3    13  TYR13      -0.1241
     16  CA       104.7150   34.3780   12.0000 C.3    13  TYR13       0.1605
     17  C        106.1050   34.3710   11.3890 C.2    13  TYR13       0.2264
     18  O        106.2300   34.4840   10.1750 O.2    13  TYR13      -0.2867
     19  CB       104.0890   35.7540   11.8290 C.3    13  TYR13       0.0534
     20  CG       102.6390   35.7550   12.2220 C.ar   13  TYR13      -0.0201
     21  CD1      102.2210   36.3880   13.3880 C.ar   13  TYR13      -0.0009
     22  CD2      101.6860   35.0620   11.4640 C.ar   13  TYR13      -0.0009
     23  CE1      100.8930   36.3340   13.8030 C.ar   13  TYR13       0.0417
     24  CE2      100.3530   34.9970   11.8680 C.ar   13  TYR13       0.0417
     25  CZ        99.9650   35.6360   13.0430 C.ar   13  TYR13       0.1957
     26  OH        98.6640   35.5780   13.4800 O.3    13  TYR13      -0.2866
     27  N         99.3240   33.2040   -0.0820 N.3    28  MET28      -0.1230
     28  CA        99.6800   33.1280    1.3380 C.3    28  MET28       0.1702
     29  C         98.7580   33.9300    2.2430 C.2    28  MET28       0.2593
     30  O         99.2080   34.5020    3.2390 O.2    28  MET28      -0.2718
     31  CB       101.1200   33.5950    1.5610 C.3    28  MET28       0.0401
     32  CG       102.1430   32.7160    0.8820 C.3    28  MET28       0.0596
     33  SD       103.8240   33.2450    1.1880 S.3    28  MET28      -0.1393
     34  CE       104.1610   32.4100    2.7970 C.3    28  MET28       0.0692
     35  N         97.4810   34.0010    1.8740 N.am   29  THR29      -0.1939
     36  CA        96.4800   34.7070    2.6740 C.3    29  THR29       0.2028
     37  C         96.2900   33.8380    3.9060 C.2    29  THR29       0.2642
     38  O         96.0080   32.6470    3.7920 O.2    29  THR29      -0.2714
     39  CB        95.1670   34.8100    1.9180 C.3    29  THR29       0.1808
     40  OG1       95.4120   35.4620    0.6660 O.3    29  THR29      -0.2208
     41  CG2       94.1350   35.5900    2.7230 C.3    29  THR29       0.0379
     42  N         96.4420   34.4310    5.0810 N.am   30  TYR30      -0.1959
     43  CA        96.3560   33.6690    6.3160 C.3    30  TYR30       0.1771
     44  C         95.2190   34.0820    7.2550 C.2    30  TYR30       0.2620
     45  O         95.4390   34.4230    8.4150 O.2    30  TYR30      -0.2715
     46  CB        97.7160   33.7580    7.0140 C.3    30  TYR30       0.0574
     47  CG        97.9800   32.7720    8.1330 C.ar   30  TYR30      -0.0198
     48  CD1       97.3610   31.5180    8.1680 C.ar   30  TYR30      -0.0009
     49  CD2       98.9240   33.0710    9.1220 C.ar   30  TYR30      -0.0009
     50  CE1       97.6870   30.5840    9.1670 C.ar   30  TYR30       0.0417
     51  CE2       99.2530   32.1520   10.1150 C.ar   30  TYR30       0.0417
     52  CZ        98.6370   30.9130   10.1350 C.ar   30  TYR30       0.1957
     53  OH        98.9910   30.0180   11.1180 O.3    30  TYR30      -0.2866
     54  N         94.0000   34.0450    6.7390 N.am   31  SER31      -0.1950
     55  CA        92.8210   34.3690    7.5240 C.3    31  SER31       0.1924
     56  C         91.6330   33.6520    6.8730 C.2    31  SER31       0.2314
     57  O         91.7490   33.1400    5.7540 O.2    31  SER31      -0.2863
     58  CB        92.6020   35.8890    7.5680 C.3    31  SER31       0.2116
     59  OG        92.5560   36.4470    6.2660 O.3    31  SER31      -0.2180
     60  N         96.5270   48.7940    5.5960 N.3    67  ASP67      -0.1225
     61  CA        96.2870   47.3910    5.9330 C.3    67  ASP67       0.1805
     62  C         96.9840   47.1340    7.2820 C.2    67  ASP67       0.2598
     63  O         98.2130   47.0160    7.3450 O.2    67  ASP67      -0.2718
     64  CB        96.8920   46.4990    4.8370 C.3    67  ASP67       0.1424
     65  CG        96.6970   45.0080    5.0950 C.2    67  ASP67       0.3668
     66  OD1       96.4090   44.6090    6.2520 O.co2  67  ASP67      -0.2456
     67  OD2       96.8510   44.2270    4.1220 O.co2  67  ASP67      -0.2456
     68  N         96.2100   47.0600    8.3600 N.am   68  ILE68      -0.1966
     69  CA        96.7880   46.8160    9.6880 C.3    68  ILE68       0.1727
     70  C         97.0210   45.3200    9.9220 C.2    68  ILE68       0.2617
     71  O         96.0750   44.5670   10.1460 O.2    68  ILE68      -0.2715
     72  CB        95.8700   47.3700   10.8110 C.3    68  ILE68       0.0290
     73  CG1       95.6480   48.8730   10.6080 C.3    68  ILE68       0.0022
     74  CG2       96.5020   47.1100   12.1700 C.3    68  ILE68       0.0023
     75  CD1       94.6490   49.4920   11.5690 C.3    68  ILE68       0.0001
     76  N         98.2840   44.9010    9.8830 N.am   69  GLY69      -0.1940
     77  CA        98.6120   43.4940   10.0590 C.3    69  GLY69       0.2014
     78  C         98.4540   42.8360    8.7010 C.2    69  GLY69       0.2639
     79  O         97.5950   41.9740    8.5120 O.2    69  GLY69      -0.2714
     80  N         99.2970   43.2500    7.7570 N.am   70  CYS70      -0.1953
     81  CA        99.2620   42.7830    6.3700 C.3    70  CYS70       0.1843
     82  C         99.8230   41.3920    6.0280 C.2    70  CYS70       0.2626
     83  O         99.8590   41.0110    4.8620 O.2    70  CYS70      -0.2714
     84  CB        99.9620   43.8260    5.5010 C.3    70  CYS70       0.0997
     85  SG       101.6810   44.1030    6.0060 S.3    70  CYS70      -0.0797
     86  N        100.2670   40.6420    7.0270 N.am   71  GLY71      -0.1940
     87  CA       100.7970   39.3130    6.7660 C.3    71  GLY71       0.2014
     88  C        101.7060   39.2260    5.5520 C.2    71  GLY71       0.2638
     89  O        102.6580   39.9910    5.4280 O.2    71  GLY71      -0.2714
     90  N        101.4210   38.2990    4.6450 N.am   72  TRP72      -0.1973
     91  CA       102.2550   38.1480    3.4650 C.3    72  TRP72       0.1640
     92  C        101.8230   38.9730    2.2520 C.2    72  TRP72       0.2290
     93  O        101.9840   38.5530    1.1060 O.2    72  TRP72      -0.2864
     94  CB       102.3940   36.6590    3.1300 C.3    72  TRP72       0.0576
     95  CG       103.3720   35.9750    4.0680 C.ar   72  TRP72       0.0006
     96  CD1      104.7390   36.0560    4.0230 C.ar   72  TRP72       0.0946
     97  CD2      103.0610   35.1630    5.2150 C.ar   72  TRP72       0.0152
     98  NE1      105.2950   35.3510    5.0650 N.ar   72  TRP72      -0.2442
     99  CE2      104.2920   34.7930    5.8120 C.ar   72  TRP72       0.0810
    100  CE3      101.8650   34.7140    5.7970 C.ar   72  TRP72       0.0012
    101  CZ2      104.3630   33.9930    6.9630 C.ar   72  TRP72       0.0191
    102  CZ3      101.9350   33.9140    6.9460 C.ar   72  TRP72       0.0001
    103  CH2      103.1790   33.5640    7.5140 C.ar   72  TRP72       0.0015
    104  N         99.0850   39.7830    0.4110 N.3    74  SER74      -0.1202
    105  CA        97.9860   39.5820   -0.5390 C.3    74  SER74       0.2020
    106  C         96.9620   40.7300   -0.6330 C.2    74  SER74       0.2619
    107  O         96.6040   41.1730   -1.7310 O.2    74  SER74      -0.2717
    108  CB        97.2470   38.2800   -0.2140 C.3    74  SER74       0.2103
    109  OG        96.5760   38.3640    1.0330 O.3    74  SER74      -0.2182
    110  N         96.4930   41.2170    0.5100 N.am   75  THR75      -0.1952
    111  CA        95.4960   42.2780    0.4940 C.3    75  THR75       0.1897
    112  C         96.0250   43.5650   -0.1130 C.2    75  THR75       0.2313
    113  O         95.3140   44.2600   -0.8360 O.2    75  THR75      -0.2863
    114  CB        94.9600   42.5820    1.9070 C.3    75  THR75       0.1794
    115  OG1       94.5940   41.3550    2.5580 O.3    75  THR75      -0.2208
    116  CG2       93.7280   43.4790    1.8110 C.3    75  THR75       0.0378
    117  N        101.1470   47.3970    7.6520 N.3    90  LEU90      -0.1231
    118  CA       101.7640   47.2630    8.9690 C.3    90  LEU90       0.1693
    119  C        101.9030   45.7920    9.3900 C.2    90  LEU90       0.2593
    120  O        100.9930   44.9910    9.1960 O.2    90  LEU90      -0.2718
    121  CB       100.9150   47.9860   10.0120 C.3    90  LEU90       0.0284
    122  CG       101.0940   49.4820   10.2410 C.3    90  LEU90       0.0019
    123  CD1      101.3060   50.1970    8.9280 C.3    90  LEU90       0.0001
    124  CD2       99.8740   50.0120   10.9800 C.3    90  LEU90       0.0001
    125  N        103.0410   45.4460    9.9760 N.am   91  THR91      -0.1939
    126  CA       103.2760   44.0860   10.4470 C.3    91  THR91       0.2028
    127  C        104.4360   44.0820   11.4410 C.2    91  THR91       0.2642
    128  O        105.2500   44.9990   11.4510 O.2    91  THR91      -0.2714
    129  CB       103.6120   43.1390    9.2870 C.3    91  THR91       0.1808
    130  OG1      103.8960   41.8320    9.8070 O.3    91  THR91      -0.2208
    131  CG2      104.8160   43.6530    8.5060 C.3    91  THR91       0.0379
    132  N        104.5070   43.0630   12.2860 N.am   92  LEU92      -0.1963
    133  CA       105.5820   42.9760   13.2630 C.3    92  LEU92       0.1728
    134  C        106.5130   41.8340   12.8700 C.2    92  LEU92       0.2616
    135  O        107.5380   41.5960   13.5130 O.2    92  LEU92      -0.2715
    136  CB       105.0180   42.7180   14.6620 C.3    92  LEU92       0.0311
    137  CG       104.0440   43.7220   15.2920 C.3    92  LEU92       0.0022
    138  CD1      103.6750   43.2400   16.6970 C.3    92  LEU92       0.0001
    139  CD2      104.6700   45.1070   15.3530 C.3    92  LEU92       0.0001
    140  N        106.1420   41.1240   11.8090 N.am   93  SER93      -0.1950
    141  CA       106.9310   39.9990   11.3280 C.3    93  SER93       0.1924
    142  C        108.0790   40.4290   10.4070 C.2    93  SER93       0.2314
    143  O        107.8990   41.2430    9.4920 O.2    93  SER93      -0.2863
    144  CB       106.0200   39.0140   10.5970 C.3    93  SER93       0.2116
    145  OG       106.7760   37.9740    9.9960 O.3    93  SER93      -0.2180
    146  N        107.6700   38.4090    6.9500 N.3    96  GLN96      -0.1245
    147  CA       106.5770   38.9340    6.1470 C.3    96  GLN96       0.1566
    148  C        107.0500   40.2340    5.5110 C.2    96  GLN96       0.2260
    149  O        106.7680   40.5050    4.3360 O.2    96  GLN96      -0.2867
    150  CB       105.3290   39.1690    7.0120 C.3    96  GLN96       0.0367
    151  CG       104.8770   37.9130    7.7390 C.3    96  GLN96       0.0905
    152  CD       103.5230   38.0490    8.4200 C.2    96  GLN96       0.2608
    153  OE1      103.2070   39.0820    9.0190 O.2    96  GLN96      -0.2717
    154  NE2      102.7220   36.9890    8.3450 N.am   96  GLN96      -0.0878
    155  N        106.0780   48.0790   11.7760 N.3   118  GLN118     -0.1231
    156  CA       105.5570   49.0490   12.7280 C.3   118  GLN118      0.1698
    157  C        104.1760   48.6430   13.2770 C.2   118  GLN118      0.2593
    158  O        103.2610   48.3090   12.5120 O.2   118  GLN118     -0.2718
    159  CB       105.4800   50.4170   12.0370 C.3   118  GLN118      0.0381
    160  CG       104.6550   51.4720   12.7580 C.3   118  GLN118      0.0905
    161  CD       104.5460   52.7800   11.9760 C.2   118  GLN118      0.2608
    162  OE1      104.3950   52.7810   10.7490 O.2   118  GLN118     -0.2717
    163  NE2      104.6010   53.9010   12.6900 N.am  118  GLN118     -0.0878
    164  N        104.0290   48.6780   14.6010 N.am  119  GLY119     -0.1942
    165  CA       102.7650   48.3160   15.2160 C.3   119  GLY119      0.2014
    166  C        101.7000   49.3920   15.0710 C.2   119  GLY119      0.2639
    167  O        102.0140   50.5780   14.9000 O.2   119  GLY119     -0.2714
    168  N        100.4330   48.9870   15.1320 N.am  120  TRP120     -0.1959
    169  CA        99.3350   49.9390   15.0130 C.3   120  TRP120      0.1771
    170  C         99.4170   50.9730   16.1280 C.2   120  TRP120      0.2619
    171  O         98.9540   52.1070   15.9750 O.2   120  TRP120     -0.2715
    172  CB        97.9780   49.2270   15.0880 C.3   120  TRP120      0.0590
    173  CG        97.6650   48.5520   16.4130 C.ar  120  TRP120      0.0006
    174  CD1       97.8610   47.2330   16.7380 C.ar  120  TRP120      0.0946
    175  CD2       97.0560   49.1560   17.5630 C.ar  120  TRP120      0.0152
    176  NE1       97.4050   46.9790   18.0120 N.ar  120  TRP120     -0.2442
    177  CE2       96.9060   48.1400   18.5420 C.ar  120  TRP120      0.0810
    178  CE3       96.6190   50.4570   17.8620 C.ar  120  TRP120      0.0012
    179  CZ2       96.3350   48.3870   19.7990 C.ar  120  TRP120      0.0191
    180  CZ3       96.0500   50.7020   19.1160 C.ar  120  TRP120      0.0001
    181  CH2       95.9140   49.6690   20.0660 C.ar  120  TRP120      0.0015
    182  N        100.0140   50.5700   17.2480 N.am  121  GLU121     -0.1977
    183  CA       100.1510   51.4410   18.4110 C.3   121  GLU121      0.1602
    184  C        101.0430   52.6430   18.1410 C.2   121  GLU121      0.2287
    185  O        100.9680   53.6540   18.8400 O.2   121  GLU121     -0.2864
    186  CB       100.7220   50.6550   19.5950 C.3   121  GLU121      0.0415
    187  CG        99.8320   49.5230   20.1060 C.3   121  GLU121      0.1163
    188  CD       100.2530   48.1510   19.5990 C.2   121  GLU121      0.3649
    189  OE1       99.8610   47.1360   20.2150 O.co2 121  GLU121     -0.2457
    190  OE2      100.9670   48.0830   18.5860 O.co2 121  GLU121     -0.2457
    191  N         92.5000   42.2350    8.5650 N.3   133  LEU133     -0.1231
    192  CA        91.9820   40.8710    8.4910 C.3   133  LEU133      0.1693
    193  C         92.8040   39.9150    9.3410 C.2   133  LEU133      0.2593
    194  O         93.9630   39.6370    9.0230 O.2   133  LEU133     -0.2718
    195  CB        92.0100   40.3690    7.0410 C.3   133  LEU133      0.0284
    196  CG        91.5190   41.2760    5.9100 C.3   133  LEU133      0.0019
    197  CD1       91.9280   40.6580    4.5880 C.3   133  LEU133      0.0001
    198  CD2       90.0210   41.4730    5.9840 C.3   133  LEU133      0.0001
    199  N         92.2070   39.4120   10.4160 N.am  134  GLY134     -0.1942
    200  CA        92.8980   38.4550   11.2680 C.3   134  GLY134      0.2014
    201  C         94.1060   38.9390   12.0530 C.2   134  GLY134      0.2638
    202  O         95.0070   38.1590   12.3730 O.2   134  GLY134     -0.2714
    203  N         94.1330   40.2260   12.3730 N.am  135  ALA135     -0.1977
    204  CA        95.2390   40.7780   13.1410 C.3   135  ALA135      0.1597
    205  C         94.7060   41.2480   14.4890 C.2   135  ALA135      0.2287
    206  O         95.4390   41.2820   15.4800 O.2   135  ALA135     -0.2864
    207  CB        95.8690   41.9410   12.3930 C.3   135  ALA135      0.0319
    208  N         95.3020   39.8620   18.0640 N.3   138  HIS138     -0.1226
    209  CA        96.5680   40.1270   18.7440 C.3   138  HIS138      0.1752
    210  C         96.5480   41.5010   19.4300 C.2   138  HIS138      0.2596
    211  O         97.3550   41.7610   20.3240 O.2   138  HIS138     -0.2718
    212  CB        97.7290   40.1250   17.7490 C.3   138  HIS138      0.0759
    213  CG        98.1120   38.7660   17.2510 C.ar  138  HIS138      0.0818
    214  ND1       98.6090   37.7800   18.0780 N.ar  138  HIS138     -0.2268
    215  CD2       98.1060   38.2410   16.0010 C.ar  138  HIS138      0.1154
    216  CE1       98.8930   36.7080   17.3600 C.ar  138  HIS138      0.1986
    217  NE2       98.5970   36.9610   16.0960 N.ar  138  HIS138     -0.2212
    218  N         95.6190   42.3650   19.0210 N.am  139  PHE139     -0.1976
    219  CA        95.5350   43.7340   19.5400 C.3   139  PHE139      0.1639
    220  C         95.2920   43.9690   21.0330 C.2   139  PHE139      0.2290
    221  O         95.5890   45.0600   21.5380 O.2   139  PHE139     -0.2864
    222  CB        94.5220   44.5270   18.7110 C.3   139  PHE139      0.0560
    223  CG        94.9140   44.6720   17.2520 C.ar  139  PHE139     -0.0200
    224  CD1       96.0730   44.0520   16.7570 C.ar  139  PHE139     -0.0042
    225  CD2       94.1180   45.4130   16.3670 C.ar  139  PHE139     -0.0042
    226  CE1       96.4340   44.1600   15.4180 C.ar  139  PHE139     -0.0003
    227  CE2       94.4720   45.5300   15.0180 C.ar  139  PHE139     -0.0003
    228  CZ        95.6370   44.8980   14.5430 C.ar  139  PHE139     -0.0000
@<TRIPOS>BOND
     1   107   106    2
     2   113   112    2
     3   106   105    1
     4   106   110   am
     5   105   108    1
     6   105   104    1
     7   108   109    1
     8   112   111    1
     9    27    28    1
    10   111   110    1
    11   111   114    1
    12    40    39    1
    13    32    33    1
    14    32    31    1
    15    93    92    2
    16    33    34    1
    17    28    31    1
    18    28    29    1
    19   116   114    1
    20    35    29   am
    21    35    36    1
    22   114   115    1
    23    39    36    1
    24    39    41    1
    25    29    30    2
    26    92    91    1
    27    36    37    1
    28    94    91    1
    29    94    95    1
    30    91    90    1
    31    38    37    2
    32    37    42   am
    33    96    95   ar
    34    96    98   ar
    35    95    97   ar
    36    67    65   ar
    37   149   148    2
    38   197   196    1
    39    90    88   am
    40    64    65    1
    41    64    61    1
    42    83    82    2
    43    98    99   ar
    44    42    43    1
    45    65    66   ar
    46    97   100   ar
    47    97    99   ar
    48    89    88    2
    49    84    85    1
    50    84    81    1
    51   148   147    1
    52    88    87    1
    53    60    61    1
    54    57    56    2
    55   100   102   ar
    56    99   101   ar
    57   196   198    1
    58   196   195    1
    59    61    62    1
    60    82    81    1
    61    82    86   am
    62   147   146    1
    63   147   150    1
    64    59    58    1
    65    43    46    1
    66    43    44    1
    67    81    80    1
    68    54    44   am
    69    54    55    1
    70    87    86    1
    71    56    55    1
    72   102   103   ar
    73   101   103   ar
    74   150   151    1
    75    46    47    1
    76   195   192    1
    77    44    45    2
    78    62    63    2
    79    62    68   am
    80    55    58    1
    81   117   118    1
    82   151   152    1
    83    80    78   am
    84    47    48   ar
    85    47    49   ar
    86    48    50   ar
    87   154   152   am
    88    68    69    1
    89   152   153    2
    90   192   191    1
    91   192   193    1
    92   131   129    1
    93    79    78    2
    94    78    77    1
    95   123   122    1
    96   118   119    1
    97   118   121    1
    98   194   193    2
    99    49    51   ar
   100    50    52   ar
   101   120   119    2
   102   129   130    1
   103   129   126    1
   104   193   199   am
   105   119   125   am
   106   143   142    2
   107    69    70    1
   108    69    72    1
   109    76    70   am
   110    76    77    1
   111    70    71    2
   112   125   126    1
   113   145   144    1
   114   121   122    1
   115    51    52   ar
   116    52    53    1
   117    18    17    2
   118   122   124    1
   119   142   141    1
   120   199   200    1
   121   126   127    1
   122   144   141    1
   123    73    72    1
   124    73    75    1
   125   162   161    2
   126    72    74    1
   127   200   201    1
   128   141   140    1
   129    17    16    1
   130   127   128    2
   131   127   132   am
   132    22    24   ar
   133    22    20   ar
   134   155   156    1
   135   140   134   am
   136    19    16    1
   137    19    20    1
   138    24    25   ar
   139   161   163   am
   140   161   160    1
   141    16    15    1
   142   159   156    1
   143   159   160    1
   144   201   202    2
   145   201   203   am
   146    20    21   ar
   147   132   133    1
   148   203   204    1
   149   207   204    1
   150   158   157    2
   151   156   157    1
   152   134   133    1
   153   134   135    2
   154    25    26    1
   155    25    23   ar
   156   204   205    1
   157   133   136    1
   158   157   164   am
   159    21    23   ar
   160   205   206    2
   161   228   227   ar
   162   228   226   ar
   163   164   165    1
   164   136   137    1
   165   167   166    2
   166   169   172    1
   167   169   168    1
   168   169   170    1
   169   227   225   ar
   170   166   168   am
   171   166   165    1
   172   172   173    1
   173    13    12    1
   174   137   139    1
   175   137   138    1
   176   226   224   ar
   177    11    10    2
   178   171   170    2
   179   215   217   ar
   180   215   213   ar
   181   217   216   ar
   182   170   182   am
   183   225   223   ar
   184   173   174   ar
   185   173   175   ar
   186    10     9    1
   187    12     9    1
   188    12    14    1
   189   174   176   ar
   190   224   223   ar
   191   182   183    1
   192   213   212    1
   193   213   214   ar
   194   223   222    1
   195     9     8    1
   196   216   214   ar
   197   175   178   ar
   198   175   177   ar
   199   212   209    1
   200   178   180   ar
   201   176   177   ar
   202   208   209    1
   203   184   183    1
   204   184   185    2
   205   183   186    1
   206   177   179   ar
   207   190   188   ar
   208   222   219    1
   209   209   210    1
   210   218   210   am
   211   218   219    1
   212   180   181   ar
   213     4     3    2
   214   210   211    2
   215   219   220    1
   216   186   187    1
   217   188   187    1
   218   188   189   ar
   219   179   181   ar
   220     3     2    1
   221     7     1    1
   222     7     6    1
   223     1     2    1
   224     6     5    1
   225   220   221    2
   226     2     5    1
