@<TRIPOS>MOLECULE
tmp/1kpiA01.pdb
 225 218 0 0 0
SMALL
GASTEIGER

@<TRIPOS>ATOM
      1  N        104.5140   33.9330   13.3670 N.3    13  TYR13      -0.1241
      2  CA       104.7150   34.3780   12.0000 C.3    13  TYR13       0.1605
      3  C        106.1050   34.3710   11.3890 C.2    13  TYR13       0.2264
      4  O        106.2300   34.4840   10.1750 O.2    13  TYR13      -0.2867
      5  CB       104.0890   35.7540   11.8290 C.3    13  TYR13       0.0534
      6  CG       102.6390   35.7550   12.2220 C.ar   13  TYR13      -0.0201
      7  CD1      102.2210   36.3880   13.3880 C.ar   13  TYR13      -0.0009
      8  CD2      101.6860   35.0620   11.4640 C.ar   13  TYR13      -0.0009
      9  CE1      100.8930   36.3340   13.8030 C.ar   13  TYR13       0.0417
     10  CE2      100.3530   34.9970   11.8680 C.ar   13  TYR13       0.0417
     11  CZ        99.9650   35.6360   13.0430 C.ar   13  TYR13       0.1957
     12  OH        98.6640   35.5780   13.4800 O.3    13  TYR13      -0.2866
     13  N         96.4420   34.4310    5.0810 N.3    30  TYR30      -0.1227
     14  CA        96.3560   33.6690    6.3160 C.3    30  TYR30       0.1736
     15  C         95.2190   34.0820    7.2550 C.2    30  TYR30       0.2596
     16  O         95.4390   34.4230    8.4150 O.2    30  TYR30      -0.2718
     17  CB        97.7160   33.7580    7.0140 C.3    30  TYR30       0.0548
     18  CG        97.9800   32.7720    8.1330 C.ar   30  TYR30      -0.0200
     19  CD1       97.3610   31.5180    8.1680 C.ar   30  TYR30      -0.0009
     20  CD2       98.9240   33.0710    9.1220 C.ar   30  TYR30      -0.0009
     21  CE1       97.6870   30.5840    9.1670 C.ar   30  TYR30       0.0417
     22  CE2       99.2530   32.1520   10.1150 C.ar   30  TYR30       0.0417
     23  CZ        98.6370   30.9130   10.1350 C.ar   30  TYR30       0.1957
     24  OH        98.9910   30.0180   11.1180 O.3    30  TYR30      -0.2866
     25  N         94.0000   34.0450    6.7390 N.am   31  SER31      -0.1952
     26  CA        92.8210   34.3690    7.5240 C.3    31  SER31       0.1924
     27  C         91.6330   33.6520    6.8730 C.2    31  SER31       0.2314
     28  O         91.7490   33.1400    5.7540 O.2    31  SER31      -0.2863
     29  CB        92.6020   35.8890    7.5680 C.3    31  SER31       0.2116
     30  OG        92.5560   36.4470    6.2660 O.3    31  SER31      -0.2180
     31  N         92.5000   42.2350    8.5650 N.3   133  LEU133     -0.1231
     32  CA        91.9820   40.8710    8.4910 C.3   133  LEU133      0.1693
     33  C         92.8040   39.9150    9.3410 C.2   133  LEU133      0.2592
     34  O         93.9630   39.6370    9.0230 O.2   133  LEU133     -0.2718
     35  CB        92.0100   40.3690    7.0410 C.3   133  LEU133      0.0284
     36  CG        91.5190   41.2760    5.9100 C.3   133  LEU133      0.0019
     37  CD1       91.9280   40.6580    4.5880 C.3   133  LEU133      0.0001
     38  CD2       90.0210   41.4730    5.9840 C.3   133  LEU133      0.0001
     39  N         92.2070   39.4120   10.4160 N.am  134  GLY134     -0.1957
     40  CA        92.8980   38.4550   11.2680 C.3   134  GLY134      0.1869
     41  C         94.1060   38.9390   12.0530 C.2   134  GLY134      0.2309
     42  O         95.0070   38.1590   12.3730 O.2   134  GLY134     -0.2863
     43  N         92.9450   39.8590   16.7050 N.3   137  GLU137     -0.1231
     44  CA        93.0750   38.8980   17.8000 C.3   137  GLU137      0.1699
     45  C         94.3780   39.0680   18.5940 C.2   137  GLU137      0.2592
     46  O         94.5410   38.4910   19.6680 O.2   137  GLU137     -0.2718
     47  CB        92.9630   37.4620   17.2640 C.3   137  GLU137      0.0402
     48  CG        91.6860   37.2000   16.4590 C.3   137  GLU137      0.1161
     49  CD        91.8050   37.5970   14.9850 C.2   137  GLU137      0.3649
     50  OE1       92.5460   38.5550   14.6690 O.co2 137  GLU137     -0.2457
     51  OE2       91.1460   36.9580   14.1370 O.co2 137  GLU137     -0.2457
     52  N         95.3020   39.8620   18.0640 N.am  138  HIS138     -0.1976
     53  CA        96.5680   40.1270   18.7440 C.3   138  HIS138      0.1656
     54  C         96.5480   41.5010   19.4300 C.2   138  HIS138      0.2291
     55  O         97.3550   41.7610   20.3240 O.2   138  HIS138     -0.2864
     56  CB        97.7290   40.1250   17.7490 C.3   138  HIS138      0.0771
     57  CG        98.1120   38.7660   17.2510 C.ar  138  HIS138      0.0820
     58  ND1       98.6090   37.7800   18.0780 N.ar  138  HIS138     -0.2267
     59  CD2       98.1060   38.2410   16.0010 C.ar  138  HIS138      0.1154
     60  CE1       98.8930   36.7080   17.3600 C.ar  138  HIS138      0.1986
     61  NE2       98.5970   36.9610   16.0960 N.ar  138  HIS138     -0.2212
     62  N         88.1910   37.0470   14.5040 N.3   173  ILE173     -0.1245
     63  CA        87.5450   35.8620   15.0490 C.3   173  ILE173      0.1561
     64  C         86.8250   36.3800   16.2830 C.2   173  ILE173      0.2260
     65  O         87.2370   37.3950   16.8550 O.2   173  ILE173     -0.2867
     66  CB        88.5860   34.8030   15.4800 C.3   173  ILE173      0.0252
     67  CG1       89.2100   34.1650   14.2430 C.3   173  ILE173      0.0019
     68  CG2       87.9380   33.7550   16.3750 C.3   173  ILE173      0.0019
     69  CD1       90.4680   33.4190   14.5330 C.3   173  ILE173      0.0001
     70  N         84.2210   35.2690   19.9840 N.3   175  ILE175     -0.1245
     71  CA        83.6440   34.2530   20.8490 C.3   175  ILE175      0.1561
     72  C         82.2420   34.7170   21.2210 C.2   175  ILE175      0.2260
     73  O         81.9780   35.9180   21.2800 O.2   175  ILE175     -0.2867
     74  CB        84.4870   34.0080   22.1150 C.3   175  ILE175      0.0252
     75  CG1       84.9500   35.3270   22.7140 C.3   175  ILE175      0.0019
     76  CG2       85.6610   33.1250   21.7770 C.3   175  ILE175      0.0019
     77  CD1       85.8330   35.1360   23.9260 C.3   175  ILE175      0.0001
     78  N         92.9190   24.5170   24.0260 N.3   196  ILE196     -0.1245
     79  CA        93.0770   25.9570   24.1690 C.3   196  ILE196      0.1561
     80  C         94.4390   26.2130   24.8120 C.2   196  ILE196      0.2260
     81  O         95.1980   27.0720   24.3640 O.2   196  ILE196     -0.2867
     82  CB        91.9640   26.5530   25.0610 C.3   196  ILE196      0.0252
     83  CG1       90.6010   26.3100   24.4150 C.3   196  ILE196      0.0019
     84  CG2       92.1870   28.0350   25.2650 C.3   196  ILE196      0.0019
     85  CD1       90.4840   26.8180   22.9870 C.3   196  ILE196      0.0001
     86  N         97.0020   25.8230   22.2810 N.3   199  ILE199     -0.1231
     87  CA        97.0330   26.9420   21.3500 C.3   199  ILE199      0.1692
     88  C         97.7050   28.1880   21.9280 C.2   199  ILE199      0.2591
     89  O         98.5210   28.8290   21.2640 O.2   199  ILE199     -0.2718
     90  CB        95.6120   27.3330   20.8950 C.3   199  ILE199      0.0266
     91  CG1       94.9900   26.1860   20.0940 C.3   199  ILE199      0.0019
     92  CG2       95.6660   28.5970   20.0350 C.3   199  ILE199      0.0020
     93  CD1       95.6940   25.8910   18.7650 C.3   199  ILE199      0.0001
     94  N         97.3570   28.5310   23.1640 N.am  200  LEU200     -0.1980
     95  CA        97.9170   29.7150   23.8070 C.3   200  LEU200      0.1596
     96  C         99.3650   29.5430   24.2160 C.2   200  LEU200      0.2287
     97  O        100.0310   30.5190   24.5660 O.2   200  LEU200     -0.2864
     98  CB        97.0790   30.1090   25.0270 C.3   200  LEU200      0.0297
     99  CG        95.7400   30.7400   24.6410 C.3   200  LEU200      0.0022
    100  CD1       94.8320   30.8360   25.8460 C.3   200  LEU200      0.0001
    101  CD2       95.9950   32.1040   24.0380 C.3   200  LEU200      0.0001
    102  N         99.6040   30.6280   19.3860 N.3   204  PHE204     -0.1241
    103  CA        99.4040   32.0710   19.4880 C.3   204  PHE204      0.1605
    104  C         99.5170   32.6290   20.9050 C.2   204  PHE204      0.2264
    105  O         98.5120   32.9050   21.5600 O.2   204  PHE204     -0.2867
    106  CB        98.0360   32.4480   18.9080 C.3   204  PHE204      0.0534
    107  CG        97.8660   32.0800   17.4570 C.ar  204  PHE204     -0.0203
    108  CD1       96.8000   31.2770   17.0460 C.ar  204  PHE204     -0.0042
    109  CD2       98.7750   32.5280   16.4970 C.ar  204  PHE204     -0.0042
    110  CE1       96.6450   30.9240   15.6940 C.ar  204  PHE204     -0.0003
    111  CE2       98.6320   32.1830   15.1490 C.ar  204  PHE204     -0.0003
    112  CZ        97.5660   31.3800   14.7460 C.ar  204  PHE204     -0.0000
    113  N         97.1880   35.6540   22.4660 N.3   207  GLY207     -0.1210
    114  CA        96.0020   35.9190   21.6780 C.3   207  GLY207      0.1956
    115  C         94.7540   36.0730   22.5260 C.2   207  GLY207      0.2612
    116  O         94.5460   35.3220   23.4780 O.2   207  GLY207     -0.2717
    117  N         93.9200   37.0480   22.1860 N.am  208  ARG208     -0.1965
    118  CA        92.6750   37.2810   22.9110 C.3   208  ARG208      0.1729
    119  C         91.5400   37.4900   21.9080 C.2   208  ARG208      0.2616
    120  O         91.6440   38.3260   21.0110 O.2   208  ARG208     -0.2715
    121  CB        92.7980   38.5100   23.8180 C.3   208  ARG208      0.0348
    122  CG        93.6580   38.3240   25.0710 C.3   208  ARG208      0.0492
    123  CD        93.6570   39.6230   25.8580 C.3   208  ARG208      0.2205
    124  NE        94.2670   39.5650   27.1900 N.pl3 208  ARG208     -0.0865
    125  CZ        95.5470   39.2850   27.4390 C.cat 208  ARG208      0.5346
    126  NH1       96.3960   39.0150   26.4450 N.pl3 208  ARG208      0.1354
    127  NH2       95.9900   39.3100   28.6930 N.pl3 208  ARG208      0.1354
    128  N         90.4620   36.7260   22.0610 N.am  209  LEU209     -0.1977
    129  CA        89.3090   36.8180   21.1680 C.3   209  LEU209      0.1596
    130  C         88.2180   37.7160   21.7480 C.2   209  LEU209      0.2287
    131  O         87.8050   37.5480   22.8990 O.2   209  LEU209     -0.2864
    132  CB        88.7290   35.4220   20.9100 C.3   209  LEU209      0.0297
    133  CG        89.6900   34.3550   20.3680 C.3   209  LEU209      0.0022
    134  CD1       88.9580   33.0400   20.2190 C.3   209  LEU209      0.0001
    135  CD2       90.2540   34.7920   19.0250 C.3   209  LEU209      0.0001
    136  N         85.4950   29.0410    7.8680 N.3   236  TYR236     -0.1241
    137  CA        86.7950   28.6690    8.4090 C.3   236  TYR236      0.1605
    138  C         87.0480   27.1780    8.4340 C.2   236  TYR236      0.2264
    139  O         88.1950   26.7430    8.5560 O.2   236  TYR236     -0.2867
    140  CB        86.9800   29.2370    9.8200 C.3   236  TYR236      0.0534
    141  CG        88.2650   30.0290    9.9750 C.ar  236  TYR236     -0.0201
    142  CD1       89.4600   29.5850    9.3820 C.ar  236  TYR236     -0.0009
    143  CD2       88.2880   31.2400   10.6770 C.ar  236  TYR236     -0.0009
    144  CE1       90.6400   30.3290    9.4780 C.ar  236  TYR236      0.0417
    145  CE2       89.4670   31.9940   10.7780 C.ar  236  TYR236      0.0417
    146  CZ        90.6370   31.5320   10.1750 C.ar  236  TYR236      0.1957
    147  OH        91.8010   32.2650   10.2670 O.3   236  TYR236     -0.2866
    148  N         90.5590   25.9230    7.1670 N.3   240  LEU240     -0.1245
    149  CA        91.4530   25.1580    8.0300 C.3   240  LEU240      0.1561
    150  C         91.6630   23.7250    7.5540 C.2   240  LEU240      0.2260
    151  O         92.7310   23.1410    7.7770 O.2   240  LEU240     -0.2867
    152  CB        90.9320   25.1710    9.4700 C.3   240  LEU240      0.0270
    153  CG        91.2740   26.4670   10.2200 C.3   240  LEU240      0.0019
    154  CD1       90.2350   26.7340   11.3030 C.3   240  LEU240      0.0001
    155  CD2       92.6910   26.3700   10.7970 C.3   240  LEU240      0.0001
    156  N         94.0830   23.8810    4.6630 N.3   243  TRP243     -0.1241
    157  CA        95.4390   24.0770    5.1660 C.3   243  TRP243      0.1605
    158  C         96.0240   22.8020    5.7510 C.2   243  TRP243      0.2264
    159  O         97.1630   22.4500    5.4510 O.2   243  TRP243     -0.2867
    160  CB        95.4910   25.2010    6.2180 C.3   243  TRP243      0.0550
    161  CG        95.2520   26.5860    5.6710 C.ar  243  TRP243      0.0003
    162  CD1       95.3960   26.9980    4.3730 C.ar  243  TRP243      0.0946
    163  CD2       94.8530   27.7440    6.4150 C.ar  243  TRP243      0.0152
    164  NE1       95.1070   28.3410    4.2640 N.ar  243  TRP243     -0.2442
    165  CE2       94.7720   28.8230    5.5020 C.ar  243  TRP243      0.0810
    166  CE3       94.5580   27.9770    7.7640 C.ar  243  TRP243      0.0012
    167  CZ2       94.4070   30.1170    5.8980 C.ar  243  TRP243      0.0191
    168  CZ3       94.1940   29.2640    8.1580 C.ar  243  TRP243      0.0001
    169  CH2       94.1220   30.3170    7.2250 C.ar  243  TRP243      0.0015
    170  N         97.0920   21.6640   15.5800 N.3   269  TYR269     -0.1241
    171  CA        96.5110   22.9920   15.6700 C.3   269  TYR269      0.1605
    172  C         95.5150   23.2640   14.5410 C.2   269  TYR269      0.2264
    173  O         94.4120   23.7390   14.8040 O.2   269  TYR269     -0.2867
    174  CB        97.6460   24.0330   15.7150 C.3   269  TYR269      0.0534
    175  CG        97.4690   25.2860   14.8800 C.ar  269  TYR269     -0.0201
    176  CD1       96.3340   26.0950   15.0130 C.ar  269  TYR269     -0.0009
    177  CD2       98.4630   25.6860   13.9800 C.ar  269  TYR269     -0.0009
    178  CE1       96.1940   27.2740   14.2710 C.ar  269  TYR269      0.0417
    179  CE2       98.3320   26.8640   13.2340 C.ar  269  TYR269      0.0417
    180  CZ        97.1960   27.6520   13.3870 C.ar  269  TYR269      0.1957
    181  OH        97.0690   28.8270   12.6800 O.3   269  TYR269     -0.2866
    182  N         91.4100   23.4350   15.4490 N.3   273  CYS273     -0.1235
    183  CA        90.6960   24.6960   15.2620 C.3   273  CYS273      0.1677
    184  C         89.4940   24.6050   14.3240 C.2   273  CYS273      0.2270
    185  O         88.5130   25.3260   14.5130 O.2   273  CYS273     -0.2867
    186  CB        91.6510   25.7840   14.7570 C.3   273  CYS273      0.0956
    187  SG        92.8240   26.3970   15.9970 S.3   273  CYS273     -0.0801
    188  N         86.3250   23.8210   16.0380 N.3   276  LEU276     -0.1231
    189  CA        85.8380   24.8940   16.8920 C.3   276  LEU276      0.1693
    190  C         84.8430   25.7600   16.1370 C.2   276  LEU276      0.2592
    191  O         83.8100   26.1430   16.6870 O.2   276  LEU276     -0.2718
    192  CB        87.0000   25.7470   17.4230 C.3   276  LEU276      0.0284
    193  CG        87.8860   25.0710   18.4770 C.3   276  LEU276      0.0019
    194  CD1       88.9610   26.0280   18.9490 C.3   276  LEU276      0.0001
    195  CD2       87.0390   24.6320   19.6420 C.3   276  LEU276      0.0001
    196  N         85.1440   26.0540   14.8720 N.am  277  PHE277     -0.1976
    197  CA        84.2580   26.8830   14.0500 C.3   277  PHE277      0.1639
    198  C         83.0550   26.1000   13.5400 C.2   277  PHE277      0.2290
    199  O         81.9820   26.6660   13.3160 O.2   277  PHE277     -0.2864
    200  CB        85.0190   27.4810   12.8670 C.3   277  PHE277      0.0560
    201  CG        86.0590   28.4650   13.2720 C.ar  277  PHE277     -0.0200
    202  CD1       87.3600   28.0420   13.5550 C.ar  277  PHE277     -0.0042
    203  CD2       85.7260   29.8170   13.4270 C.ar  277  PHE277     -0.0042
    204  CE1       88.3170   28.9490   13.9890 C.ar  277  PHE277     -0.0003
    205  CE2       86.6700   30.7390   13.8610 C.ar  277  PHE277     -0.0003
    206  CZ        87.9730   30.3100   14.1450 C.ar  277  PHE277     -0.0000
    207  N         81.8610   27.1070   18.5490 N.3   281  TYR281     -0.1227
    208  CA        82.5390   27.5720   19.7480 C.3   281  TYR281      0.1736
    209  C         83.1510   28.9520   19.4520 C.2   281  TYR281      0.2596
    210  O         83.2370   29.8110   20.3300 O.2   281  TYR281     -0.2718
    211  CB        83.6280   26.5850   20.1690 C.3   281  TYR281      0.0548
    212  CG        84.0280   26.7730   21.6090 C.ar  281  TYR281     -0.0200
    213  CD1       83.2360   26.2640   22.6440 C.ar  281  TYR281     -0.0009
    214  CD2       85.1620   27.5230   21.9510 C.ar  281  TYR281     -0.0009
    215  CE1       83.5640   26.5020   23.9940 C.ar  281  TYR281      0.0417
    216  CE2       85.4990   27.7670   23.2940 C.ar  281  TYR281      0.0417
    217  CZ        84.6960   27.2570   24.3090 C.ar  281  TYR281      0.1957
    218  OH        85.0090   27.5130   25.6290 O.3   281  TYR281     -0.2866
    219  N         83.5740   29.1450   18.2040 N.am  282  THR282     -0.1953
    220  CA        84.1440   30.4080   17.7380 C.3   282  THR282      0.1897
    221  C         83.4710   30.8150   16.4210 C.2   282  THR282      0.2313
    222  O         82.8480   29.9940   15.7540 O.2   282  THR282     -0.2863
    223  CB        85.6630   30.3030   17.4860 C.3   282  THR282      0.1794
    224  OG1       85.9520   29.0920   16.7790 O.3   282  THR282     -0.2208
    225  CG2       86.4210   30.3390   18.7920 C.3   282  THR282      0.0378
@<TRIPOS>BOND
     1   164   162   ar
     2   164   165   ar
     3   162   161   ar
     4    37    36    1
     5   156   157    1
     6    13    14    1
     7   157   158    1
     8   157   160    1
     9   159   158    2
    10   165   167   ar
    11   165   163   ar
    12   161   160    1
    13   161   163   ar
    14    28    27    2
    15   167   169   ar
    16    36    38    1
    17    36    35    1
    18    30    29    1
    19    14    17    1
    20    14    15    1
    21   163   166   ar
    22    25    15   am
    23    25    26    1
    24    27    26    1
    25    17    18    1
    26    35    32    1
    27   148   149    1
    28   169   168   ar
    29    15    16    2
    30    26    29    1
    31   150   151    2
    32   150   149    1
    33   166   168   ar
    34   136   137    1
    35   149   152    1
    36    18    19   ar
    37    18    20   ar
    38    19    21   ar
    39   137   138    1
    40   137   140    1
    41   138   139    2
    42    32    31    1
    43    32    33    1
    44    34    33    2
    45    20    22   ar
    46    21    23   ar
    47    33    39   am
    48   142   144   ar
    49   142   141   ar
    50   152   153    1
    51   144   146   ar
    52   140   141    1
    53   141   143   ar
    54    22    23   ar
    55    23    24    1
    56     4     3    2
    57   146   147    1
    58   146   145   ar
    59   153   155    1
    60   153   154    1
    61    39    40    1
    62   143   145   ar
    63    40    41    1
    64     3     2    1
    65     8    10   ar
    66     8     6   ar
    67     5     2    1
    68     5     6    1
    69    10    11   ar
    70     2     1    1
    71    41    42    2
    72     6     7   ar
    73   181   180    1
    74   200   201    1
    75   200   197    1
    76    11    12    1
    77    11     9   ar
    78   179   180   ar
    79   179   177   ar
    80   201   203   ar
    81   201   202   ar
    82   199   198    2
    83   180   178   ar
    84     7     9   ar
    85   203   205   ar
    86   198   197    1
    87   202   204   ar
    88   205   206   ar
    89   177   175   ar
    90   204   206   ar
    91   197   196    1
    92    51    49   ar
    93    67    69    1
    94    67    66    1
    95   178   176   ar
    96   184   185    2
    97   184   183    1
    98    62    63    1
    99   172   173    2
   100   172   171    1
   101    50    49   ar
   102   112   111   ar
   103   112   110   ar
   104   186   183    1
   105   186   187    1
   106   196   190   am
   107   175   176   ar
   108   175   174    1
   109    49    48    1
   110    63    66    1
   111    63    64    1
   112   111   109   ar
   113   183   182    1
   114    66    68    1
   115   170   171    1
   116   171   174    1
   117   110   108   ar
   118   222   221    2
   119    59    61   ar
   120    59    57   ar
   121   188   189    1
   122    61    60   ar
   123   190   191    2
   124   190   189    1
   125    64    65    2
   126   221   220    1
   127    48    47    1
   128   109   107   ar
   129    43    44    1
   130   224   223    1
   131   189   192    1
   132   108   107   ar
   133    57    56    1
   134    57    58   ar
   135    47    44    1
   136    60    58   ar
   137   192   193    1
   138   107   106    1
   139   223   220    1
   140   223   225    1
   141   220   219    1
   142    56    53    1
   143    44    45    1
   144    52    45   am
   145    52    53    1
   146   219   209   am
   147   193   194    1
   148   193   195    1
   149   207   208    1
   150    45    46    2
   151    53    54    1
   152    93    91    1
   153   106   103    1
   154   135   133    1
   155   102   103    1
   156    54    55    2
   157   209   208    1
   158   209   210    2
   159   103   104    1
   160   208   211    1
   161    70    71    1
   162    92    90    1
   163    91    90    1
   164   211   212    1
   165   134   133    1
   166   133   132    1
   167    71    72    1
   168    71    74    1
   169    90    87    1
   170   104   105    2
   171   132   129    1
   172   120   119    2
   173   129   130    1
   174   129   128    1
   175    72    73    2
   176    89    88    2
   177    87    88    1
   178    87    86    1
   179   212   214   ar
   180   212   213   ar
   181   114   113    1
   182   114   115    1
   183   130   131    2
   184    76    74    1
   185   119   128   am
   186   119   118    1
   187    88    94   am
   188   214   216   ar
   189    74    75    1
   190   117   115   am
   191   117   118    1
   192   115   116    2
   193   213   215   ar
   194    75    77    1
   195   118   121    1
   196    85    83    1
   197    94    95    1
   198   216   217   ar
   199    95    96    1
   200    95    98    1
   201   121   122    1
   202   215   217   ar
   203    78    79    1
   204   101    99    1
   205    79    80    1
   206    79    82    1
   207    96    97    2
   208   217   218    1
   209    81    80    2
   210    83    82    1
   211    99    98    1
   212    99   100    1
   213    82    84    1
   214   122   123    1
   215   123   124    1
   216   126   125    1
   217   124   125    2
   218   125   127    1
