@<TRIPOS>MOLECULE
tmp/1kpmA00.pdb
 154 152 0 0 0
SMALL
GASTEIGER

@<TRIPOS>ATOM
      1  N         16.2770   15.5450   40.9160 N.3     2  LEU2       -0.1245
      2  CA        15.2890   16.6080   40.8030 C.3     2  LEU2        0.1561
      3  C         13.9670   16.0420   40.2970 C.2     2  LEU2        0.2260
      4  O         12.8960   16.5500   40.6230 O.2     2  LEU2       -0.2867
      5  CB        15.8020   17.6900   39.8460 C.3     2  LEU2        0.0270
      6  CG        16.5570   18.9700   40.2380 C.3     2  LEU2        0.0019
      7  CD1       17.1130   18.8650   41.6490 C.3     2  LEU2        0.0001
      8  CD2       17.6740   19.2120   39.2380 C.3     2  LEU2        0.0001
      9  N         12.1790   14.3150   43.3450 N.3     5  PHE5       -0.1227
     10  CA        11.8510   15.3680   44.3010 C.3     5  PHE5        0.1736
     11  C         10.7060   16.2190   43.7580 C.2     5  PHE5        0.2596
     12  O          9.7430   16.5270   44.4690 O.2     5  PHE5       -0.2718
     13  CB        13.0960   16.2230   44.5620 C.3     5  PHE5        0.0547
     14  CG        12.9210   17.2520   45.6450 C.ar    5  PHE5       -0.0202
     15  CD1       12.0730   17.0180   46.7210 C.ar    5  PHE5       -0.0042
     16  CD2       13.6390   18.4440   45.6050 C.ar    5  PHE5       -0.0042
     17  CE1       11.9430   17.9530   47.7410 C.ar    5  PHE5       -0.0003
     18  CE2       13.5160   19.3880   46.6230 C.ar    5  PHE5       -0.0003
     19  CZ        12.6660   19.1400   47.6920 C.ar    5  PHE5       -0.0000
     20  N         10.8010   16.5800   42.4840 N.am    6  GLY6       -0.1957
     21  CA         9.7580   17.3870   41.8850 C.3     6  GLY6        0.1869
     22  C          8.4160   16.6880   41.9020 C.2     6  GLY6        0.2309
     23  O          7.3840   17.3250   42.0940 O.2     6  GLY6       -0.2863
     24  N          6.9110   16.9070   45.3890 N.3     9  ILE9       -0.1245
     25  CA         6.4530   18.2680   45.6170 C.3     9  ILE9        0.1561
     26  C          5.0990   18.5130   44.9650 C.2     9  ILE9        0.2260
     27  O          4.2210   19.1310   45.5620 O.2     9  ILE9       -0.2867
     28  CB         7.4730   19.2810   45.0690 C.3     9  ILE9        0.0252
     29  CG1        8.7860   19.1550   45.8520 C.3     9  ILE9        0.0019
     30  CG2        6.9130   20.6970   45.1580 C.3     9  ILE9        0.0019
     31  CD1        9.9050   20.0170   45.3200 C.3     9  ILE9        0.0001
     32  N          7.0130   21.9010   41.1250 N.3    17  ALA17      -0.1231
     33  CA         8.2510   22.2910   41.8000 C.3    17  ALA17       0.1694
     34  C          8.9350   23.4330   41.0650 C.2    17  ALA17       0.2591
     35  O          9.3720   24.4080   41.6740 O.2    17  ALA17      -0.2718
     36  CB         9.1870   21.0930   41.9070 C.3    17  ALA17       0.0304
     37  N          9.0490   23.2860   39.7500 N.am   18  ILE18      -0.1980
     38  CA         9.6280   24.3200   38.9080 C.3    18  ILE18       0.1595
     39  C          8.4090   24.7900   38.1290 C.2    18  ILE18       0.2287
     40  O          7.7730   23.9930   37.4370 O.2    18  ILE18      -0.2864
     41  CB        10.6860   23.7460   37.9390 C.3    18  ILE18       0.0276
     42  CG1       11.8510   23.1550   38.7330 C.3    18  ILE18       0.0022
     43  CG2       11.2060   24.8450   37.0170 C.3    18  ILE18       0.0022
     44  CD1       12.9770   22.6100   37.8670 C.3    18  ILE18       0.0001
     45  N          8.8530   26.4080   43.3500 N.3    21  TYR21      -0.1227
     46  CA         9.8480   26.3330   44.4200 C.3    21  TYR21       0.1736
     47  C         11.3010   26.3790   43.9630 C.2    21  TYR21       0.2596
     48  O         12.2090   26.1250   44.7560 O.2    21  TYR21      -0.2718
     49  CB         9.6370   25.0500   45.2200 C.3    21  TYR21       0.0548
     50  CG         8.3650   25.0190   46.0280 C.ar   21  TYR21      -0.0200
     51  CD1        8.2990   25.6290   47.2790 C.ar   21  TYR21      -0.0009
     52  CD2        7.2350   24.3500   45.5600 C.ar   21  TYR21      -0.0009
     53  CE1        7.1420   25.5700   48.0500 C.ar   21  TYR21       0.0417
     54  CE2        6.0710   24.2830   46.3260 C.ar   21  TYR21       0.0417
     55  CZ         6.0340   24.8940   47.5690 C.ar   21  TYR21       0.1957
     56  OH         4.8980   24.8140   48.3390 O.3    21  TYR21      -0.2866
     57  N         11.5360   26.7080   42.6990 N.am   22  SER22      -0.1952
     58  CA        12.9000   26.7400   42.1850 C.3    22  SER22       0.1924
     59  C         13.5970   28.0980   42.2450 C.2    22  SER22       0.2314
     60  O         14.7430   28.2270   41.8130 O.2    22  SER22      -0.2863
     61  CB        12.9100   26.2170   40.7460 C.3    22  SER22       0.2116
     62  OG        11.9360   26.9000   39.9780 O.3    22  SER22      -0.2180
     63  N         16.9980   29.8680   49.9220 N.3    27  TYR27      -0.1227
     64  CA        17.4370   28.4850   49.8010 C.3    27  TYR27       0.1736
     65  C         16.7220   27.5770   48.8110 C.2    27  TYR27       0.2596
     66  O         17.2240   26.5000   48.5010 O.2    27  TYR27      -0.2718
     67  CB        17.4370   27.8280   51.1840 C.3    27  TYR27       0.0548
     68  CG        18.4760   28.4260   52.1020 C.ar   27  TYR27      -0.0200
     69  CD1       18.1780   29.5240   52.9090 C.ar   27  TYR27      -0.0009
     70  CD2       19.7840   27.9440   52.1000 C.ar   27  TYR27      -0.0009
     71  CE1       19.1660   30.1340   53.6890 C.ar   27  TYR27       0.0417
     72  CE2       20.7770   28.5450   52.8710 C.ar   27  TYR27       0.0417
     73  CZ        20.4620   29.6390   53.6590 C.ar   27  TYR27       0.1957
     74  OH        21.4570   30.2490   54.3910 O.3    27  TYR27      -0.2866
     75  N         15.5590   27.9850   48.3210 N.am   28  CYS28      -0.1956
     76  CA        14.8450   27.1540   47.3590 C.3    28  CYS28       0.1843
     77  C         15.3210   27.5120   45.9620 C.2    28  CYS28       0.2626
     78  O         14.6480   28.2240   45.2190 O.2    28  CYS28      -0.2714
     79  CB        13.3410   27.3730   47.4460 C.3    28  CYS28       0.0997
     80  SG        12.6120   27.1280   49.0910 S.3    28  CYS28      -0.0797
     81  N         16.4990   27.0110   45.6280 N.am   29  GLY29      -0.1940
     82  CA        17.1000   27.2630   44.3350 C.3    29  GLY29       0.2014
     83  C         18.4770   26.6390   44.3880 C.2    29  GLY29       0.2638
     84  O         18.6520   25.5950   45.0140 O.2    29  GLY29      -0.2714
     85  N         19.3900   27.1020   43.8390 N.am   30  TRP30      -0.1973
     86  CA        20.7440   26.5660   43.8540 C.3    30  TRP30       0.1640
     87  C         21.5630   27.2450   44.9420 C.2    30  TRP30       0.2290
     88  O         22.5500   26.6920   45.4270 O.2    30  TRP30      -0.2864
     89  CB        20.8120   26.5720   42.6510 C.3    30  TRP30       0.0576
     90  CG        20.4380   26.1290   41.2700 C.ar   30  TRP30       0.0006
     91  CD1       19.8670   26.8900   40.2890 C.ar   30  TRP30       0.0946
     92  CD2       20.5950   24.8150   40.7190 C.ar   30  TRP30       0.0152
     93  NE1       19.6610   26.1320   39.1610 N.ar   30  TRP30      -0.2442
     94  CE2       20.0960   24.8550   39.3970 C.ar   30  TRP30       0.0810
     95  CE3       21.1050   23.6070   41.2140 C.ar   30  TRP30       0.0012
     96  CZ2       20.0960   23.7320   38.5620 C.ar   30  TRP30       0.0191
     97  CZ3       21.1050   22.4890   40.3820 C.ar   30  TRP30       0.0001
     98  CH2       20.6020   22.5620   39.0710 C.ar   30  TRP30       0.0015
     99  N         13.6560   24.5330   52.6740 N.3    44  CYS44      -0.1235
    100  CA        14.7480   24.3800   51.7240 C.3    44  CYS44       0.1677
    101  C         16.0930   24.4070   52.4230 C.2    44  CYS44       0.2270
    102  O         17.0010   23.6820   52.0350 O.2    44  CYS44      -0.2867
    103  CB        14.6810   25.4610   50.6370 C.3    44  CYS44       0.0956
    104  SG        13.1760   25.2520   49.6330 S.3    44  CYS44      -0.0801
    105  N         16.4950   21.1190   53.8590 N.3    47  HIS47      -0.1226
    106  CA        16.7200   20.1770   52.7670 C.3    47  HIS47       0.1752
    107  C         18.1920   20.2070   52.3390 C.2    47  HIS47       0.2596
    108  O         18.7990   19.1600   52.0800 O.2    47  HIS47      -0.2718
    109  CB        15.8070   20.5220   51.5860 C.3    47  HIS47       0.0759
    110  CG        15.8500   19.5220   50.4760 C.ar   47  HIS47       0.0818
    111  ND1       16.3940   19.8030   49.2420 N.ar   47  HIS47      -0.2268
    112  CD2       15.4220   18.2380   50.4160 C.ar   47  HIS47       0.1154
    113  CE1       16.2980   18.7360   48.4690 C.ar   47  HIS47       0.1986
    114  NE2       15.7120   17.7720   49.1570 N.ar   47  HIS47      -0.2212
    115  N         18.7690   21.4050   52.2760 N.am   48  ASP48      -0.1974
    116  CA        20.1720   21.5520   51.8960 C.3    48  ASP48       0.1709
    117  C         21.0630   20.9020   52.9420 C.2    48  ASP48       0.2293
    118  O         22.0260   20.2200   52.6080 O.2    48  ASP48      -0.2864
    119  CB        20.5630   23.0280   51.7640 C.3    48  ASP48       0.1436
    120  CG        20.0820   23.6540   50.4670 C.2    48  ASP48       0.3671
    121  OD1       19.7740   22.9080   49.5120 O.co2  48  ASP48      -0.2456
    122  OD2       20.0340   24.9030   50.4010 O.co2  48  ASP48      -0.2456
    123  N         20.9520   17.1830   52.5050 N.3    51  TYR51      -0.1241
    124  CA        21.7990   16.8200   51.3730 C.3    51  TYR51       0.1605
    125  C         23.2730   16.9680   51.7430 C.2    51  TYR51       0.2264
    126  O         24.1040   16.1420   51.3610 O.2    51  TYR51      -0.2867
    127  CB        21.5040   17.7310   50.1820 C.3    51  TYR51       0.0534
    128  CG        20.4150   17.2480   49.2520 C.ar   51  TYR51      -0.0201
    129  CD1       19.4550   16.3290   49.6740 C.ar   51  TYR51      -0.0009
    130  CD2       20.3260   17.7430   47.9530 C.ar   51  TYR51      -0.0009
    131  CE1       18.4300   15.9160   48.8200 C.ar   51  TYR51       0.0417
    132  CE2       19.3100   17.3380   47.0950 C.ar   51  TYR51       0.0417
    133  CZ        18.3660   16.4290   47.5340 C.ar   51  TYR51       0.1957
    134  OH        17.3450   16.0580   46.6890 O.3    51  TYR51      -0.2866
    135  N         21.4030   15.5440   44.2560 N.3    60  LYS60      -0.1245
    136  CA        20.7210   16.2080   43.1560 C.3    60  LYS60       0.1561
    137  C         20.7500   15.4380   41.8380 C.2    60  LYS60       0.2260
    138  O         20.0200   15.7740   40.9050 O.2    60  LYS60      -0.2867
    139  CB        21.3230   17.6030   42.9760 C.3    60  LYS60       0.0271
    140  CG        21.2480   18.4370   44.2520 C.3    60  LYS60       0.0035
    141  CD        22.2920   19.5440   44.3050 C.3    60  LYS60       0.0206
    142  CE        22.0210   20.6430   43.2940 C.3    60  LYS60       0.1093
    143  NZ        22.9980   21.7580   43.4600 N.3    60  LYS60      -0.1314
    144  N          6.9550   21.5700   52.8060 N.3    96  PHE96      -0.1241
    145  CA         6.3310   22.5730   51.9380 C.3    96  PHE96       0.1605
    146  C          4.8120   22.5500   52.1290 C.2    96  PHE96       0.2264
    147  O          4.1750   23.5910   52.3060 O.2    96  PHE96      -0.2867
    148  CB         6.6110   22.3010   50.4520 C.3    96  PHE96       0.0534
    149  CG         8.0390   22.5180   50.0320 C.ar   96  PHE96      -0.0203
    150  CD1        8.8300   23.4890   50.6420 C.ar   96  PHE96      -0.0042
    151  CD2        8.5750   21.7810   48.9780 C.ar   96  PHE96      -0.0042
    152  CE1       10.1410   23.7240   50.2050 C.ar   96  PHE96      -0.0003
    153  CE2        9.8810   22.0070   48.5310 C.ar   96  PHE96      -0.0003
    154  CZ        10.6650   22.9830   49.1480 C.ar   96  PHE96      -0.0000
@<TRIPOS>BOND
     1    43    41    1
     2    40    39    2
     3    44    42    1
     4    41    42    1
     5    41    38    1
     6    39    38    1
     7    96    98   ar
     8    96    94   ar
     9    38    37    1
    10    98    97   ar
    11    93    94   ar
    12    93    91   ar
    13     8     6    1
    14    94    92   ar
    15    37    34   am
    16     5     6    1
    17     5     2    1
    18    62    61    1
    19     6     7    1
    20    91    90   ar
    21     3     4    2
    22     3     2    1
    23    97    95   ar
    24    92    95   ar
    25    92    90   ar
    26    61    58    1
    27     2     1    1
    28   138   137    2
    29    34    35    2
    30    34    33    1
    31    32    33    1
    32    90    89    1
    33    33    36    1
    34    60    59    2
    35   137   136    1
    36    21    22    1
    37    21    20    1
    38    22    23    2
    39    58    59    1
    40    58    57    1
    41    20    11   am
    42    89    86    1
    43    57    47   am
    44   139   136    1
    45   139   140    1
    46   136   135    1
    47   142   143    1
    48   142   141    1
    49     9    10    1
    50    45    46    1
    51    11    10    1
    52    11    12    2
    53    85    86    1
    54    85    83   am
    55    86    87    1
    56    47    46    1
    57    47    48    2
    58   140   141    1
    59    10    13    1
    60    82    83    1
    61    82    81    1
    62    83    84    2
    63    46    49    1
    64    13    14    1
    65    87    88    2
    66    26    27    2
    67    26    25    1
    68    28    30    1
    69    28    25    1
    70    28    29    1
    71    78    77    2
    72    49    50    1
    73    31    29    1
    74    24    25    1
    75    52    50   ar
    76    52    54   ar
    77    16    14   ar
    78    16    18   ar
    79    81    77   am
    80    14    15   ar
    81    77    76    1
    82    50    51   ar
    83    54    55   ar
    84    18    19   ar
    85   134   133    1
    86    15    17   ar
    87   132   133   ar
    88   132   130   ar
    89    51    53   ar
    90    76    79    1
    91    76    75    1
    92    79    80    1
    93   133   131   ar
    94    55    53   ar
    95    55    56    1
    96    19    17   ar
    97   130   128   ar
    98    75    65   am
    99   113   114   ar
   100   113   111   ar
   101    66    65    2
   102   153   151   ar
   103   153   154   ar
   104    65    64    1
   105   131   129   ar
   106   151   149   ar
   107    80   104    1
   108   154   152   ar
   109   114   112   ar
   110   111   110   ar
   111   128   129   ar
   112   128   127    1
   113   121   120   ar
   114   104   103    1
   115    64    63    1
   116    64    67    1
   117   149   148    1
   118   149   150   ar
   119   127   124    1
   120   152   150   ar
   121   122   120   ar
   122   112   110   ar
   123   148   145    1
   124   120   119    1
   125   110   109    1
   126   103   100    1
   127    67    68    1
   128   126   125    2
   129   124   125    1
   130   124   123    1
   131   109   106    1
   132   100   101    1
   133   100    99    1
   134   119   116    1
   135   116   115    1
   136   116   117    1
   137   145   146    1
   138   145   144    1
   139   102   101    2
   140   108   107    2
   141    70    68   ar
   142    70    72   ar
   143    68    69   ar
   144   146   147    2
   145   115   107   am
   146   107   106    1
   147   118   117    2
   148   106   105    1
   149    72    73   ar
   150    69    71   ar
   151    73    71   ar
   152    73    74    1
