@<TRIPOS>MOLECULE
tmp/1kq0A00.pdb
 130 125 0 0 0
SMALL
GASTEIGER

@<TRIPOS>ATOM
      1  N         23.3970   31.0960    9.6290 N.3    95  PHE95      -0.1228
      2  CA        23.4060   31.8730   10.8530 C.3    95  PHE95       0.1721
      3  C         24.8150   31.7980   11.4320 C.2    95  PHE95       0.2437
      4  O         25.6120   30.9630   11.0200 O.2    95  PHE95      -0.2733
      5  CB        22.3200   31.4020   11.8330 C.3    95  PHE95       0.0547
      6  CG        22.4070   29.9550   12.2000 C.ar   95  PHE95      -0.0202
      7  CD1       21.5750   29.0250   11.6050 C.ar   95  PHE95      -0.0042
      8  CD2       23.3180   29.5240   13.1520 C.ar   95  PHE95      -0.0042
      9  CE1       21.6500   27.6920   11.9510 C.ar   95  PHE95      -0.0003
     10  CE2       23.4000   28.1940   13.4990 C.ar   95  PHE95      -0.0003
     11  CZ        22.5640   27.2740   12.9010 C.ar   95  PHE95      -0.0000
     12  N         25.1530   32.7040   12.3350 N.am   96  PRO96      -0.2729
     13  CA        26.5120   32.7500   12.8730 C.3    96  PRO96       0.1401
     14  C         26.9200   31.5170   13.6620 C.2    96  PRO96       0.2269
     15  O         26.0780   30.7680   14.1620 O.2    96  PRO96      -0.2865
     16  CB        26.4760   33.9690   13.7910 C.3    96  PRO96       0.0296
     17  CG        25.3130   34.7590   13.3470 C.3    96  PRO96       0.0237
     18  CD        24.3110   33.7680   12.8970 C.3    96  PRO96       0.0939
     19  N         23.8740   28.9460   24.3350 N.3   106  ALA106     -0.1231
     20  CA        23.5450   29.3450   22.9720 C.3   106  ALA106      0.1694
     21  C         23.7210   30.8380   22.6930 C.2   106  ALA106      0.2592
     22  O         23.7730   31.6480   23.6130 O.2   106  ALA106     -0.2718
     23  CB        22.0980   28.9640   22.7040 C.3   106  ALA106      0.0304
     24  N         23.8070   31.1770   21.4040 N.am  107  HIS107     -0.1976
     25  CA        23.8700   32.5750   20.9420 C.3   107  HIS107      0.1656
     26  C         25.0590   33.4170   21.2650 C.2   107  HIS107      0.2291
     27  O         25.0020   34.6450   21.1590 O.2   107  HIS107     -0.2864
     28  CB        22.6490   33.3260   21.3560 C.3   107  HIS107      0.0771
     29  CG        21.4730   32.6610   20.7540 C.ar  107  HIS107      0.0820
     30  ND1       20.1610   32.9610   21.0270 N.ar  107  HIS107     -0.2267
     31  CD2       21.4580   31.6150   19.8960 C.ar  107  HIS107      0.1154
     32  CE1       19.3840   32.1380   20.3420 C.ar  107  HIS107      0.1986
     33  NE2       20.1470   31.3100   19.6520 N.ar  107  HIS107     -0.2212
     34  N         27.6000   25.3960   17.0710 N.3   127  ASP127     -0.1239
     35  CA        26.3090   25.3350   16.4170 C.3   127  ASP127      0.1674
     36  C         26.3830   26.2830   15.2300 C.2   127  ASP127      0.2266
     37  O         26.4890   27.5010   15.3960 O.2   127  ASP127     -0.2867
     38  CB        25.2650   25.7980   17.4270 C.3   127  ASP127      0.1410
     39  CG        23.8550   25.7010   16.9130 C.2   127  ASP127      0.3668
     40  OD1       23.6550   25.4200   15.7140 O.co2 127  ASP127     -0.2456
     41  OD2       22.8830   25.8870   17.6670 O.co2 127  ASP127     -0.2456
     42  N         20.5430   23.2000   10.3820 N.3   138  ASP138     -0.1239
     43  CA        20.8450   23.6530   11.7350 C.3   138  ASP138      0.1674
     44  C         21.2790   22.3910   12.4750 C.2   138  ASP138      0.2266
     45  O         20.4580   21.5160   12.7420 O.2   138  ASP138     -0.2867
     46  CB        19.5950   24.2270   12.3880 C.3   138  ASP138      0.1410
     47  CG        19.8650   24.8320   13.7400 C.2   138  ASP138      0.3668
     48  OD1       21.0110   24.7660   14.2190 O.co2 138  ASP138     -0.2456
     49  OD2       18.9710   25.3680   14.4120 O.co2 138  ASP138     -0.2456
     50  N         12.8790   23.4320   16.9590 N.3   207  HIS207     -0.1241
     51  CA        11.9910   24.2630   16.1630 C.3   207  HIS207      0.1621
     52  C         11.7790   23.8450   14.7430 C.2   207  HIS207      0.2264
     53  O         12.6380   23.1980   14.1490 O.2   207  HIS207     -0.2867
     54  CB        12.6000   25.6740   16.0630 C.3   207  HIS207      0.0745
     55  CG        14.0400   25.7160   15.5970 C.ar  207  HIS207      0.0817
     56  ND1       15.1060   25.6390   16.4720 N.ar  207  HIS207     -0.2268
     57  CD2       14.5810   25.9260   14.3710 C.ar  207  HIS207      0.1154
     58  CE1       16.2370   25.7550   15.7990 C.ar  207  HIS207      0.1986
     59  NE2       15.9470   25.9290   14.5220 N.ar  207  HIS207     -0.2212
     60  N         14.8250   30.2590    9.9600 N.3   214  ILE214     -0.1231
     61  CA        15.3850   29.3520   10.9610 C.3   214  ILE214      0.1692
     62  C         14.3750   28.9000   12.0210 C.2   214  ILE214      0.2592
     63  O         14.4160   27.7480   12.4470 O.2   214  ILE214     -0.2718
     64  CB        16.6410   29.9640   11.6330 C.3   214  ILE214      0.0266
     65  CG1       17.2760   28.9510   12.5820 C.3   214  ILE214      0.0019
     66  CG2       16.3110   31.2130   12.4230 C.3   214  ILE214      0.0020
     67  CD1       17.9180   27.7930   11.8790 C.3   214  ILE214      0.0001
     68  N         13.4980   29.8070   12.4530 N.am  215  HIS215     -0.1976
     69  CA        12.4440   29.4920   13.4230 C.3   215  HIS215      0.1656
     70  C         11.0820   29.7320   12.7720 C.2   215  HIS215      0.2291
     71  O         10.5550   30.8470   12.8240 O.2   215  HIS215     -0.2864
     72  CB        12.5620   30.4570   14.5990 C.3   215  HIS215      0.0771
     73  CG        13.8430   30.4790   15.4120 C.ar  215  HIS215      0.0820
     74  ND1       14.5070   31.6360   15.7710 N.ar  215  HIS215     -0.2267
     75  CD2       14.6740   29.4580   15.7590 C.ar  215  HIS215      0.1154
     76  CE1       15.6310   31.3240   16.3960 C.ar  215  HIS215      0.1986
     77  NE2       15.7530   30.0090   16.4070 N.ar  215  HIS215     -0.2212
     78  N         16.9370   19.7090   18.7320 N.3   240  GLU240     -0.1245
     79  CA        18.0730   20.0410   19.5970 C.3   240  GLU240      0.1567
     80  C         17.6530   19.8950   21.0460 C.2   240  GLU240      0.2260
     81  O         16.4990   20.1650   21.3910 O.2   240  GLU240     -0.2867
     82  CB        18.6010   21.4710   19.3470 C.3   240  GLU240      0.0388
     83  CG        17.6100   22.6090   19.4990 C.3   240  GLU240      0.1160
     84  CD        18.1820   23.9500   19.0610 C.2   240  GLU240      0.3649
     85  OE1       17.5250   24.6420   18.2560 O.co2 240  GLU240     -0.2457
     86  OE2       19.2900   24.3190   19.5000 O.co2 240  GLU240     -0.2457
     87  N         24.3790   38.3040   17.9690 N.3   258  HIS258     -0.1241
     88  CA        23.4800   37.7060   16.9890 C.3   258  HIS258      0.1621
     89  C         22.2610   38.6060   16.7740 C.2   258  HIS258      0.2264
     90  O         21.6960   39.1220   17.7430 O.2   258  HIS258     -0.2867
     91  CB        22.9900   36.3240   17.4920 C.3   258  HIS258      0.0745
     92  CG        24.0040   35.1940   17.4790 C.ar  258  HIS258      0.0817
     93  ND1       23.6480   33.9000   17.1440 N.ar  258  HIS258     -0.2268
     94  CD2       25.2920   35.1220   17.9020 C.ar  258  HIS258      0.1154
     95  CE1       24.6850   33.0960   17.3050 C.ar  258  HIS258      0.1986
     96  NE2       25.6960   33.8140   17.7580 N.ar  258  HIS258     -0.2212
     97  N         18.7270   39.2240   13.8090 N.3   260  MET260     -0.1245
     98  CA        17.9930   38.7020   12.6690 C.3   260  MET260      0.1570
     99  C         16.7490   39.5360   12.4060 C.2   260  MET260      0.2261
    100  O         15.9910   39.8500   13.3190 O.2   260  MET260     -0.2867
    101  CB        17.5910   37.2430   12.9180 C.3   260  MET260      0.0387
    102  CG        16.9600   36.5350   11.7160 C.3   260  MET260      0.0595
    103  SD        16.7120   34.7870   12.0280 S.3   260  MET260     -0.1393
    104  CE        15.5460   34.8430   13.3770 C.3   260  MET260      0.0692
    105  N         19.8720   35.0560    9.9380 N.3   290  ALA290     -0.1245
    106  CA        20.5510   35.6930   11.0480 C.3   290  ALA290      0.1562
    107  C         21.9920   36.0750   10.6810 C.2   290  ALA290      0.2260
    108  O         22.6150   35.4630    9.8160 O.2   290  ALA290     -0.2867
    109  CB        20.5360   34.7830   12.2570 C.3   290  ALA290      0.0290
    110  N         19.4520   38.7480   19.4980 N.3   320  TYR320     -0.1241
    111  CA        19.4210   37.4290   20.1320 C.3   320  TYR320      0.1605
    112  C         20.6680   37.2640   20.9950 C.2   320  TYR320      0.2264
    113  O         21.6500   36.6670   20.5660 O.2   320  TYR320     -0.2867
    114  CB        19.3590   36.3200   19.0800 C.3   320  TYR320      0.0534
    115  CG        18.0360   36.2800   18.3500 C.ar  320  TYR320     -0.0201
    116  CD1       16.9940   35.4650   18.7910 C.ar  320  TYR320     -0.0009
    117  CD2       17.8160   37.0810   17.2450 C.ar  320  TYR320     -0.0009
    118  CE1       15.7740   35.4400   18.1280 C.ar  320  TYR320      0.0417
    119  CE2       16.6020   37.0630   16.5770 C.ar  320  TYR320      0.0417
    120  CZ        15.5850   36.2440   17.0250 C.ar  320  TYR320      0.1957
    121  OH        14.3820   36.2340   16.3580 O.3   320  TYR320     -0.2866
    122  N         22.3750   18.6120   18.1760 N.3   335  GLU335     -0.1245
    123  CA        21.2770   19.0070   17.3160 C.3   335  GLU335      0.1567
    124  C         21.4200   18.4650   15.9070 C.2   335  GLU335      0.2260
    125  O         22.5120   18.4270   15.3460 O.2   335  GLU335     -0.2867
    126  CB        21.2130   20.5390   17.2510 C.3   335  GLU335      0.0388
    127  CG        20.1330   21.0840   16.3210 C.3   335  GLU335      0.1160
    128  CD        20.1070   22.6070   16.2790 C.2   335  GLU335      0.3649
    129  OE1       21.1860   23.2280   16.4000 O.co2 335  GLU335     -0.2457
    130  OE2       19.0130   23.1910   16.1290 O.co2 335  GLU335     -0.2457
@<TRIPOS>BOND
     1     1     2    1
     2   108   107    2
     3   105   106    1
     4    60    61    1
     5    42    43    1
     6   107   106    1
     7     2     3    1
     8     2     5    1
     9    61    64    1
    10    61    62    1
    11     4     3    2
    12   106   109    1
    13     3    12   am
    14     7     9   ar
    15     7     6   ar
    16    64    66    1
    17    64    65    1
    18   102   103    1
    19   102   101    1
    20    43    46    1
    21    43    44    1
    22     5     6    1
    23    67    65    1
    24     9    11   ar
    25    62    63    2
    26    62    68   am
    27   103   104    1
    28     6     8   ar
    29    12    13    1
    30    12    18    1
    31    46    47    1
    32    99    98    1
    33    99   100    2
    34    68    69    1
    35    44    45    2
    36    98   101    1
    37    98    97    1
    38    70    71    2
    39    70    69    1
    40    13    14    1
    41    13    16    1
    42    18    17    1
    43    11    10   ar
    44     8    10   ar
    45    17    16    1
    46    69    72    1
    47    14    15    2
    48    47    48   ar
    49    47    49   ar
    50    53    52    2
    51    57    59   ar
    52    57    55   ar
    53    59    58   ar
    54    72    73    1
    55    52    51    1
    56    36    37    2
    57    36    35    1
    58   125   124    2
    59    73    75   ar
    60    73    74   ar
    61    55    54    1
    62    55    56   ar
    63    40    39   ar
    64    75    77   ar
    65    74    76   ar
    66    58    56   ar
    67   124   123    1
    68    54    51    1
    69   130   128   ar
    70    51    50    1
    71   128   127    1
    72   128   129   ar
    73   127   126    1
    74   121   120    1
    75    76    77   ar
    76    35    34    1
    77    35    38    1
    78   119   120   ar
    79   119   117   ar
    80    89    88    1
    81    89    90    2
    82    39    38    1
    83    39    41   ar
    84    88    91    1
    85    88    87    1
    86   120   118   ar
    87    93    95   ar
    88    93    92   ar
    89   117   115   ar
    90   126   123    1
    91    95    96   ar
    92   123   122    1
    93    92    91    1
    94    92    94   ar
    95    96    94   ar
    96   118   116   ar
    97    85    84   ar
    98   115   116   ar
    99   115   114    1
   100    78    79    1
   101    84    83    1
   102    84    86   ar
   103   114   111    1
   104    82    83    1
   105    82    79    1
   106   110   111    1
   107    79    80    1
   108    33    31   ar
   109    33    32   ar
   110    31    29   ar
   111   111   112    1
   112    32    30   ar
   113   113   112    2
   114    29    30   ar
   115    29    28    1
   116    25    26    1
   117    25    28    1
   118    25    24    1
   119    80    81    2
   120    27    26    2
   121    24    21   am
   122    21    20    1
   123    21    22    2
   124    23    20    1
   125    20    19    1
