@<TRIPOS>MOLECULE
tmp/1kq3A00.pdb
 100 94 0 0 0
SMALL
GASTEIGER

@<TRIPOS>ATOM
      1  N         30.6840   26.6260   18.3140 N.3   119  THR119     -0.1203
      2  CA        31.4900   25.7320   17.4630 C.3   119  THR119      0.1994
      3  C         30.9740   25.8850   16.0590 C.2   119  THR119      0.2618
      4  O         29.8900   26.4350   15.8370 O.2   119  THR119     -0.2717
      5  CB        31.4310   24.2010   17.8120 C.3   119  THR119      0.1784
      6  OG1       30.2280   23.6240   17.3140 O.3   119  THR119     -0.2211
      7  CG2       31.5380   23.9740   19.3210 C.3   119  THR119      0.0376
      8  N         31.7650   25.4000   15.1090 N.am  120  ASP120     -0.1959
      9  CA        31.3610   25.4840   13.7110 C.3   120  ASP120      0.1840
     10  C         30.7170   24.1930   13.1880 C.2   120  ASP120      0.2621
     11  O         30.6380   23.9620   11.9850 O.2   120  ASP120     -0.2715
     12  CB        32.5330   25.9210   12.8210 C.3   120  ASP120      0.1450
     13  CG        33.7360   25.0260   12.9540 C.2   120  ASP120      0.3671
     14  OD1       33.6480   23.9570   13.5650 O.co2 120  ASP120     -0.2456
     15  OD2       34.7950   25.3820   12.4080 O.co2 120  ASP120     -0.2456
     16  N         30.2250   23.3650   14.0940 N.am  121  ALA121     -0.1977
     17  CA        29.5540   22.1350   13.6900 C.3   121  ALA121      0.1597
     18  C         28.1480   22.2200   13.1150 C.2   121  ALA121      0.2287
     19  O         27.7860   21.3750   12.3080 O.2   121  ALA121     -0.2864
     20  CB        29.4920   21.2010   14.8810 C.3   121  ALA121      0.0319
     21  N         27.5440   21.3480    9.3420 N.3   124  SER124     -0.1217
     22  CA        28.2260   20.1670    8.8230 C.3   124  SER124      0.1889
     23  C         27.4270   18.9070    8.6840 C.2   124  SER124      0.2288
     24  O         26.4540   18.6760    9.3870 O.2   124  SER124     -0.2866
     25  CB        29.4680   19.8570    9.6550 C.3   124  SER124      0.2089
     26  OG        29.1040   19.3380   10.9360 O.3   124  SER124     -0.2183
     27  N         27.9710   16.0130    9.7230 N.3   126  LEU126     -0.1245
     28  CA        28.6440   15.1690   10.6960 C.3   126  LEU126      0.1561
     29  C         27.9140   15.2000   12.0180 C.2   126  LEU126      0.2260
     30  O         27.3510   16.2380   12.3910 O.2   126  LEU126     -0.2867
     31  CB        30.0640   15.7210   10.9190 C.3   126  LEU126      0.0270
     32  CG        30.9860   15.0710   11.9650 C.3   126  LEU126      0.0019
     33  CD1       31.4690   13.7190   11.4610 C.3   126  LEU126      0.0001
     34  CD2       32.1900   15.9640   12.2300 C.3   126  LEU126      0.0001
     35  N         28.7260   13.9120   16.0790 N.3   128  VAL128     -0.1245
     36  CA        29.7180   13.2780   16.9540 C.3   128  VAL128      0.1561
     37  C         28.9070   12.4580   17.9890 C.2   128  VAL128      0.2260
     38  O         28.0610   12.9850   18.7100 O.2   128  VAL128     -0.2867
     39  CB        30.6300   14.3180   17.6620 C.3   128  VAL128      0.0252
     40  CG1       31.6620   13.6080   18.5240 C.3   128  VAL128      0.0019
     41  CG2       31.3730   15.1860   16.6180 C.3   128  VAL128      0.0019
     42  N         32.5150    8.9980   14.9880 N.3   139  TYR139     -0.1241
     43  CA        31.9810   10.0460   14.1250 C.3   139  TYR139      0.1605
     44  C         30.9660    9.4020   13.2090 C.2   139  TYR139      0.2264
     45  O         31.1830    8.2970   12.6920 O.2   139  TYR139     -0.2867
     46  CB        33.0620   10.6300   13.2200 C.3   139  TYR139      0.0534
     47  CG        33.9540   11.5520   13.9490 C.ar  139  TYR139     -0.0201
     48  CD1       33.5230   12.8280   14.2760 C.ar  139  TYR139     -0.0009
     49  CD2       35.2340   11.1530   14.3450 C.ar  139  TYR139     -0.0009
     50  CE1       34.3410   13.6970   14.9840 C.ar  139  TYR139      0.0417
     51  CE2       36.0560   12.0220   15.0560 C.ar  139  TYR139      0.0417
     52  CZ        35.5880   13.2970   15.3690 C.ar  139  TYR139      0.1957
     53  OH        36.3720   14.1800   16.0830 O.3   139  TYR139     -0.2866
     54  N         37.2950   28.1480   17.9060 N.3   170  ASP170     -0.1239
     55  CA        37.0850   27.0750   16.9330 C.3   170  ASP170      0.1674
     56  C         37.2310   27.6830   15.5150 C.2   170  ASP170      0.2266
     57  O         37.8580   27.0640   14.6300 O.2   170  ASP170     -0.2867
     58  CB        35.6830   26.4680   17.1710 C.3   170  ASP170      0.1410
     59  CG        35.5090   25.0890   16.5500 C.2   170  ASP170      0.3668
     60  OD1       36.5060   24.3880   16.2900 O.co2 170  ASP170     -0.2456
     61  OD2       34.3340   24.7030   16.3700 O.co2 170  ASP170     -0.2456
     62  N         36.0560   24.5870    7.3890 N.3   244  PHE244     -0.1241
     63  CA        36.6930   23.3960    7.9230 C.3   244  PHE244      0.1605
     64  C         36.2460   22.1330    7.1730 C.2   244  PHE244      0.2264
     65  O         37.0490   21.2700    6.8920 O.2   244  PHE244     -0.2867
     66  CB        36.4230   23.2490    9.4470 C.3   244  PHE244      0.0534
     67  CG        35.3040   22.2880    9.8030 C.ar  244  PHE244     -0.0203
     68  CD1       35.5080   20.9070    9.7570 C.ar  244  PHE244     -0.0042
     69  CD2       34.0390   22.7650   10.1720 C.ar  244  PHE244     -0.0042
     70  CE1       34.4790   20.0140   10.0610 C.ar  244  PHE244     -0.0003
     71  CE2       33.0080   21.8750   10.4830 C.ar  244  PHE244     -0.0003
     72  CZ        33.2240   20.5020   10.4270 C.ar  244  PHE244     -0.0000
     73  N         40.8800   19.9760    7.7720 N.3   249  LEU249     -0.1245
     74  CA        41.4790   20.0790    9.1060 C.3   249  LEU249      0.1561
     75  C         42.9510   19.6900    9.0550 C.2   249  LEU249      0.2260
     76  O         43.3840   18.9990    8.1150 O.2   249  LEU249     -0.2867
     77  CB        40.7310   19.1540   10.0740 C.3   249  LEU249      0.0270
     78  CG        39.2910   19.5810   10.3680 C.3   249  LEU249      0.0019
     79  CD1       38.6330   18.5730   11.3200 C.3   249  LEU249      0.0001
     80  CD2       39.2870   20.9540   11.0010 C.3   249  LEU249      0.0001
     81  N         43.3040   21.0280   15.1650 N.3   253  HIS253     -0.1241
     82  CA        42.3170   20.1260   15.7610 C.3   253  HIS253      0.1621
     83  C         42.9670   18.8250   16.2560 C.2   253  HIS253      0.2264
     84  O         42.4800   18.2260   17.2350 O.2   253  HIS253     -0.2867
     85  CB        41.1770   19.8590   14.7880 C.3   253  HIS253      0.0745
     86  CG        40.0480   20.8420   14.9320 C.ar  253  HIS253      0.0817
     87  ND1       40.1340   22.1590   14.5030 N.ar  253  HIS253     -0.2268
     88  CD2       38.8470   20.7320   15.5590 C.ar  253  HIS253      0.1154
     89  CE1       39.0340   22.8030   14.8520 C.ar  253  HIS253      0.1986
     90  NE2       38.2360   21.9620   15.4870 N.ar  253  HIS253     -0.2212
     91  N         35.5230   23.3230   23.8090 N.3   270  HIS270     -0.1241
     92  CA        36.1940   22.9160   22.5700 C.3   270  HIS270      0.1621
     93  C         37.0240   24.0520   21.9670 C.2   270  HIS270      0.2264
     94  O         38.2480   23.9090   21.7680 O.2   270  HIS270     -0.2867
     95  CB        35.1530   22.4570   21.5280 C.3   270  HIS270      0.0745
     96  CG        35.7320   22.1380   20.1750 C.ar  270  HIS270      0.0817
     97  ND1       36.6140   21.0960   19.9680 N.ar  270  HIS270     -0.2268
     98  CD2       35.5210   22.7010   18.9650 C.ar  270  HIS270      0.1154
     99  CE1       36.9180   21.0270   18.6800 C.ar  270  HIS270      0.1986
    100  NE2       36.2670   21.9860   18.0450 N.ar  270  HIS270     -0.2212
@<TRIPOS>BOND
     1    65    64    2
     2    64    63    1
     3    62    63    1
     4    73    74    1
     5    63    66    1
     6    76    75    2
     7    23    22    1
     8    23    24    2
     9    22    21    1
    10    22    25    1
    11    75    74    1
    12    74    77    1
    13    66    67    1
    14    25    26    1
    15    27    28    1
    16    68    67   ar
    17    68    70   ar
    18    67    69   ar
    19    70    72   ar
    20    77    78    1
    21    69    71   ar
    22    78    80    1
    23    78    79    1
    24    72    71   ar
    25    28    31    1
    26    28    29    1
    27    31    32    1
    28    33    32    1
    29    32    34    1
    30    11    10    2
    31    29    30    2
    32    19    18    2
    33    15    13   ar
    34    45    44    2
    35    12    13    1
    36    12     9    1
    37    13    14   ar
    38    18    17    1
    39    10     9    1
    40    10    16   am
    41    44    43    1
    42    46    47    1
    43    46    43    1
    44    17    16    1
    45    17    20    1
    46     9     8    1
    47    47    48   ar
    48    47    49   ar
    49    43    42    1
    50    48    50   ar
    51    49    51   ar
    52    87    89   ar
    53    87    86   ar
    54    57    56    2
    55    85    86    1
    56    85    82    1
    57    89    90   ar
    58    86    88   ar
    59    50    52   ar
    60    51    52   ar
    61     8     3   am
    62    81    82    1
    63    52    53    1
    64    90    88   ar
    65    56    55    1
    66    82    83    1
    67     4     3    2
    68     3     2    1
    69    35    36    1
    70    83    84    2
    71    60    59   ar
    72    61    59   ar
    73    59    58    1
    74    41    39    1
    75    55    58    1
    76    55    54    1
    77    36    39    1
    78    36    37    1
    79     6     5    1
    80     2     5    1
    81     2     1    1
    82    39    40    1
    83     5     7    1
    84    37    38    2
    85   100    99   ar
    86   100    98   ar
    87    99    97   ar
    88    98    96   ar
    89    97    96   ar
    90    96    95    1
    91    95    92    1
    92    94    93    2
    93    93    92    1
    94    92    91    1
