@<TRIPOS>MOLECULE
tmp/1kqfC02.pdb
 134 130 0 0 0
SMALL
GASTEIGER

@<TRIPOS>ATOM
      1  N        -25.5230  105.0240   77.2940 N.3    21  VAL21      -0.1245
      2  CA       -24.4570  106.0090   77.4520 C.3    21  VAL21       0.1561
      3  C        -23.9040  106.0610   78.8710 C.2    21  VAL21       0.2260
      4  O        -22.6920  106.1600   79.0650 O.2    21  VAL21      -0.2867
      5  CB       -24.9530  107.4190   77.0650 C.3    21  VAL21       0.0252
      6  CG1      -23.8850  108.4580   77.3700 C.3    21  VAL21       0.0019
      7  CG2      -25.3080  107.4500   75.5950 C.3    21  VAL21       0.0019
      8  N        -22.1330  102.8070   79.5120 N.3    24  PHE24      -0.1227
      9  CA       -20.8970  102.8070   78.7330 C.3    24  PHE24       0.1736
     10  C        -19.7770  103.6250   79.3850 C.2    24  PHE24       0.2595
     11  O        -18.6170  103.2350   79.3380 O.2    24  PHE24      -0.2718
     12  CB       -21.1750  103.3160   77.3120 C.3    24  PHE24       0.0547
     13  CG       -19.9890  103.2240   76.3880 C.ar   24  PHE24      -0.0202
     14  CD1      -19.0600  104.2580   76.3150 C.ar   24  PHE24      -0.0042
     15  CD2      -19.7960  102.0960   75.5960 C.ar   24  PHE24      -0.0042
     16  CE1      -17.9540  104.1700   75.4630 C.ar   24  PHE24      -0.0003
     17  CE2      -18.6960  101.9980   74.7420 C.ar   24  PHE24      -0.0003
     18  CZ       -17.7740  103.0380   74.6760 C.ar   24  PHE24      -0.0000
     19  N        -20.1320  104.7570   79.9850 N.am   25  PHE25      -0.1976
     20  CA       -19.1650  105.6220   80.6620 C.3    25  PHE25       0.1639
     21  C        -18.4360  104.8060   81.7320 C.2    25  PHE25       0.2290
     22  O        -17.2070  104.7960   81.7830 O.2    25  PHE25      -0.2864
     23  CB       -19.9130  106.8110   81.2870 C.3    25  PHE25       0.0560
     24  CG       -19.0800  107.6820   82.2090 C.ar   25  PHE25      -0.0200
     25  CD1      -18.2980  108.7260   81.7130 C.ar   25  PHE25      -0.0042
     26  CD2      -19.1440  107.4970   83.5890 C.ar   25  PHE25      -0.0042
     27  CE1      -17.6010  109.5760   82.5850 C.ar   25  PHE25      -0.0003
     28  CE2      -18.4530  108.3380   84.4620 C.ar   25  PHE25      -0.0003
     29  CZ       -17.6840  109.3790   83.9620 C.ar   25  PHE25      -0.0000
     30  N        -16.4620  101.6780   80.0140 N.3    28  ALA28      -0.1231
     31  CA       -15.3020  102.1130   79.2410 C.3    28  ALA28       0.1694
     32  C        -14.1810  102.6000   80.1510 C.2    28  ALA28       0.2591
     33  O        -13.0150  102.2510   79.9580 O.2    28  ALA28      -0.2718
     34  CB       -15.7080  103.2250   78.2690 C.3    28  ALA28       0.0304
     35  N        -14.5320  103.4070   81.1460 N.am   29  LEU29      -0.1980
     36  CA       -13.5320  103.9230   82.0690 C.3    29  LEU29       0.1596
     37  C        -12.9100  102.8210   82.9260 C.2    29  LEU29       0.2287
     38  O        -11.7030  102.8330   83.1680 O.2    29  LEU29      -0.2864
     39  CB       -14.1420  105.0230   82.9440 C.3    29  LEU29       0.0297
     40  CG       -14.4880  106.3130   82.1870 C.3    29  LEU29       0.0022
     41  CD1      -14.9700  107.3710   83.1710 C.3    29  LEU29       0.0001
     42  CD2      -13.2620  106.8140   81.4370 C.3    29  LEU29       0.0001
     43  N        -10.6210  100.9050   80.6570 N.3    32  ILE32      -0.1245
     44  CA        -9.4050  101.6610   80.3940 C.3    32  ILE32       0.1561
     45  C         -8.4520  101.5920   81.5900 C.2    32  ILE32       0.2260
     46  O         -7.2360  101.5880   81.4140 O.2    32  ILE32      -0.2867
     47  CB        -9.7220  103.1540   80.0660 C.3    32  ILE32       0.0252
     48  CG1      -10.3360  103.2690   78.6640 C.3    32  ILE32       0.0019
     49  CG2       -8.4540  103.9930   80.1480 C.3    32  ILE32       0.0019
     50  CD1       -9.4040  102.8610   77.5310 C.3    32  ILE32       0.0001
     51  N         -6.4750   98.5510   81.2060 N.3    35  PHE35      -0.1227
     52  CA        -5.6650   98.6880   79.9960 C.3    35  PHE35       0.1736
     53  C         -4.4510   99.6020   80.1880 C.2    35  PHE35       0.2595
     54  O         -3.3530   99.2850   79.7370 O.2    35  PHE35      -0.2718
     55  CB        -6.5560   99.2080   78.8590 C.3    35  PHE35       0.0547
     56  CG        -5.9430   99.0900   77.4910 C.ar   35  PHE35      -0.0202
     57  CD1       -5.2010  100.1350   76.9520 C.ar   35  PHE35      -0.0042
     58  CD2       -6.1240   97.9350   76.7350 C.ar   35  PHE35      -0.0042
     59  CE1       -4.6490  100.0340   75.6770 C.ar   35  PHE35      -0.0003
     60  CE2       -5.5760   97.8230   75.4600 C.ar   35  PHE35      -0.0003
     61  CZ        -4.8380   98.8750   74.9300 C.ar   35  PHE35      -0.0000
     62  N         -4.6620  100.7410   80.8420 N.am   36  PHE36      -0.1963
     63  CA        -3.5910  101.7000   81.1270 C.3    36  PHE36       0.1756
     64  C         -3.5400  101.8750   82.6510 C.2    36  PHE36       0.2461
     65  O         -4.1170  102.8170   83.1920 O.2    36  PHE36      -0.2730
     66  CB        -3.8850  103.0710   80.5110 C.3    36  PHE36       0.0574
     67  CG        -3.8520  103.1180   79.0070 C.ar   36  PHE36      -0.0200
     68  CD1       -2.7990  102.5610   78.2920 C.ar   36  PHE36      -0.0042
     69  CD2       -4.8400  103.8140   78.3140 C.ar   36  PHE36      -0.0042
     70  CE1       -2.7250  102.6990   76.9010 C.ar   36  PHE36      -0.0003
     71  CE2       -4.7730  103.9570   76.9280 C.ar   36  PHE36      -0.0003
     72  CZ        -3.7130  103.3990   76.2240 C.ar   36  PHE36      -0.0000
     73  N         -2.8500  100.9660   83.3590 N.am   37  PRO37      -0.2716
     74  CA        -2.7410  101.0340   84.8200 C.3    37  PRO37       0.1536
     75  C         -2.1440  102.3350   85.3620 C.2    37  PRO37       0.2599
     76  O         -2.3710  102.6910   86.5200 O.2    37  PRO37      -0.2715
     77  CB        -1.8730   99.8250   85.1580 C.3    37  PRO37       0.0310
     78  CG        -2.2220   98.8490   84.0700 C.3    37  PRO37       0.0237
     79  CD        -2.2040   99.7450   82.8470 C.3    37  PRO37       0.0939
     80  N         -1.3720  103.0380   84.5400 N.am   38  THR38      -0.1937
     81  CA        -0.7710  104.2820   85.0000 C.3    38  THR38       0.2028
     82  C         -1.8520  105.3210   85.3140 C.2    38  THR38       0.2642
     83  O         -1.6580  106.1900   86.1640 O.2    38  THR38      -0.2714
     84  CB         0.2430  104.8320   83.9650 C.3    38  THR38       0.1808
     85  OG1        1.3390  103.9120   83.8370 O.3    38  THR38      -0.2208
     86  CG2        0.7870  106.1760   84.4140 C.3    38  THR38       0.0379
     87  N         -2.9960  105.2200   84.6430 N.am   39  LEU39      -0.1977
     88  CA        -4.0960  106.1460   84.8930 C.3    39  LEU39       0.1596
     89  C         -4.8410  105.6220   86.1190 C.2    39  LEU39       0.2287
     90  O         -5.9750  105.1500   86.0250 O.2    39  LEU39      -0.2864
     91  CB        -5.0370  106.1970   83.6810 C.3    39  LEU39       0.0297
     92  CG        -4.3510  106.4590   82.3360 C.3    39  LEU39       0.0022
     93  CD1       -5.3830  106.4470   81.2180 C.3    39  LEU39       0.0001
     94  CD2       -3.6190  107.7940   82.3790 C.3    39  LEU39       0.0001
     95  N         -8.6920  106.2080   87.3260 N.3    42  LEU42      -0.1245
     96  CA        -9.7670  105.4220   86.7430 C.3    42  LEU42       0.1561
     97  C        -10.0430  104.1040   87.4720 C.2    42  LEU42       0.2260
     98  O        -11.0480  103.4440   87.1980 O.2    42  LEU42      -0.2867
     99  CB        -9.4770  105.1720   85.2600 C.3    42  LEU42       0.0270
    100  CG        -9.2990  106.4580   84.4350 C.3    42  LEU42       0.0019
    101  CD1       -9.0550  106.1130   82.9740 C.3    42  LEU42       0.0001
    102  CD2      -10.5370  107.3310   84.5730 C.3    42  LEU42       0.0001
    103  N        -14.3020  102.2040   71.8660 N.3   162  ILE162     -0.1245
    104  CA       -14.1660  103.4870   72.5510 C.3   162  ILE162      0.1561
    105  C        -13.7790  104.5920   71.5680 C.2   162  ILE162      0.2260
    106  O        -14.2420  105.7290   71.6910 O.2   162  ILE162     -0.2867
    107  CB       -13.1320  103.4020   73.7050 C.3   162  ILE162      0.0252
    108  CG1      -13.6660  102.4640   74.7930 C.3   162  ILE162      0.0019
    109  CG2      -12.8780  104.7890   74.2930 C.3   162  ILE162      0.0019
    110  CD1      -12.6930  102.1950   75.9290 C.3   162  ILE162      0.0001
    111  N        -16.9050  105.4400   69.6230 N.3   165  ILE165     -0.1231
    112  CA       -17.8210  106.2730   70.3880 C.3   165  ILE165      0.1692
    113  C        -17.3140  107.7060   70.4950 C.2   165  ILE165      0.2591
    114  O        -18.1050  108.6490   70.4940 O.2   165  ILE165     -0.2718
    115  CB       -18.0640  105.6910   71.7990 C.3   165  ILE165      0.0266
    116  CG1      -18.8560  104.3870   71.6770 C.3   165  ILE165      0.0019
    117  CG2      -18.8180  106.6890   72.6640 C.3   165  ILE165      0.0020
    118  CD1      -20.1090  104.5030   70.8250 C.3   165  ILE165      0.0001
    119  N        -15.9980  107.8760   70.5840 N.am  166  LEU166     -0.1980
    120  CA       -15.4370  109.2180   70.6620 C.3   166  LEU166      0.1596
    121  C        -15.8640  109.9620   69.4000 C.2   166  LEU166      0.2287
    122  O        -16.3370  111.0980   69.4600 O.2   166  LEU166     -0.2864
    123  CB       -13.9060  109.1670   70.7490 C.3   166  LEU166      0.0297
    124  CG       -13.2850  108.7040   72.0700 C.3   166  LEU166      0.0022
    125  CD1      -11.7660  108.6440   71.9380 C.3   166  LEU166      0.0001
    126  CD2      -13.6820  109.6590   73.1840 C.3   166  LEU166      0.0001
    127  N        -19.6300  110.6800   69.3360 N.3   169  MET169     -0.1245
    128  CA       -20.0210  111.8000   70.1890 C.3   169  MET169      0.1570
    129  C        -19.6530  113.0920   69.4950 C.2   169  MET169      0.2261
    130  O        -20.4390  114.0390   69.4620 O.2   169  MET169     -0.2867
    131  CB       -19.2870  111.7740   71.5300 C.3   169  MET169      0.0387
    132  CG       -19.5920  110.6020   72.4260 C.3   169  MET169      0.0595
    133  SD       -18.8270  110.8660   74.0430 S.3   169  MET169     -0.1393
    134  CE       -17.1010  110.8280   73.5870 C.3   169  MET169      0.0692
@<TRIPOS>BOND
     1   127   128    1
     2   121   122    2
     3   121   120    1
     4   130   129    2
     5   129   128    1
     6   111   112    1
     7   128   131    1
     8   112   113    1
     9   112   115    1
    10   114   113    2
    11   113   119   am
    12   119   120    1
    13   120   123    1
    14   123   124    1
    15   118   116    1
    16   131   132    1
    17   105   106    2
    18   105   104    1
    19   116   115    1
    20   115   117    1
    21   103   104    1
    22   125   124    1
    23   124   126    1
    24   132   133    1
    25   104   107    1
    26   134   133    1
    27   107   109    1
    28   107   108    1
    29    18    17   ar
    30    18    16   ar
    31    17    15   ar
    32   108   110    1
    33    61    60   ar
    34    61    59   ar
    35    60    58   ar
    36    16    14   ar
    37     7     5    1
    38    15    13   ar
    39    59    57   ar
    40    72    70   ar
    41    72    71   ar
    42    14    13   ar
    43    13    12    1
    44    58    56   ar
    45    70    68   ar
    46    71    69   ar
    47    57    56   ar
    48     5     6    1
    49     5     2    1
    50     1     2    1
    51    12     9    1
    52     2     3    1
    53    56    55    1
    54    50    48    1
    55    34    31    1
    56    68    67   ar
    57    69    67   ar
    58    48    47    1
    59     9    10    1
    60     9     8    1
    61    55    52    1
    62     3     4    2
    63    67    66    1
    64    31    30    1
    65    31    32    1
    66    11    10    2
    67    10    19   am
    68    54    53    2
    69    33    32    2
    70    19    20    1
    71    52    53    1
    72    52    51    1
    73    47    49    1
    74    47    44    1
    75    32    35   am
    76    53    62   am
    77    44    43    1
    78    44    45    1
    79    66    63    1
    80    20    23    1
    81    20    21    1
    82    62    63    1
    83    63    64    1
    84    35    36    1
    85    93    92    1
    86    23    24    1
    87    46    45    2
    88    42    40    1
    89    25    24   ar
    90    25    27   ar
    91    21    22    2
    92    36    37    1
    93    36    39    1
    94    40    39    1
    95    40    41    1
    96    24    26   ar
    97    92    94    1
    98    92    91    1
    99    27    29   ar
   100    64    65    2
   101    64    73   am
   102    79    73    1
   103    79    78    1
   104    37    38    2
   105   101   100    1
   106    73    74    1
   107    26    28   ar
   108    91    88    1
   109    85    84    1
   110    29    28   ar
   111    84    86    1
   112    84    81    1
   113    78    77    1
   114   100   102    1
   115   100    99    1
   116    80    81    1
   117    80    75   am
   118    87    88    1
   119    87    82   am
   120    74    77    1
   121    74    75    1
   122    88    89    1
   123    81    82    1
   124    99    96    1
   125    82    83    2
   126    75    76    2
   127    90    89    2
   128    96    95    1
   129    96    97    1
   130    98    97    2
