@<TRIPOS>MOLECULE
tmp/1kqfB01.pdb
 109 106 0 0 0
SMALL
GASTEIGER

@<TRIPOS>ATOM
      1  N          2.0360   95.9960   86.4250 N.3    12  ALA12      -0.1231
      2  CA         1.3680   97.2200   85.9930 C.3    12  ALA12       0.1694
      3  C          2.0610   98.5060   86.4200 C.2    12  ALA12       0.2593
      4  O          1.4320   99.4060   86.9780 O.2    12  ALA12      -0.2718
      5  CB        -0.0680   97.2200   86.4960 C.3    12  ALA12       0.0304
      6  N          3.3550   98.5920   86.1440 N.am   13  THR13      -0.1939
      7  CA         4.1470   99.7580   86.4990 C.3    13  THR13       0.2028
      8  C          4.8730  100.2180   85.2420 C.2    13  THR13       0.2642
      9  O          5.5590   99.4300   84.5960 O.2    13  THR13      -0.2714
     10  CB         5.1690   99.3920   87.5910 C.3    13  THR13       0.1808
     11  OG1        4.4710   98.9010   88.7430 O.3    13  THR13      -0.2208
     12  CG2        6.0000  100.5970   87.9800 C.3    13  THR13       0.0379
     13  N          4.7250  101.4880   84.8860 N.am   14  ASN14      -0.1957
     14  CA         5.3730  101.9870   83.6810 C.3    14  ASN14       0.1819
     15  C          6.8870  101.8220   83.7440 C.2    14  ASN14       0.2622
     16  O          7.5050  102.0430   84.7860 O.2    14  ASN14      -0.2715
     17  CB         5.0120  103.4510   83.4380 C.3    14  ASN14       0.1195
     18  CG         5.3690  103.9070   82.0370 C.2    14  ASN14       0.2630
     19  OD1        6.5340  104.1560   81.7340 O.2    14  ASN14      -0.2716
     20  ND2        4.3650  103.9970   81.1690 N.am   14  ASN14      -0.0877
     21  N          7.4750  101.4440   82.6140 N.am   15  SER15      -0.1936
     22  CA         8.9080  101.2200   82.5340 C.3    15  SER15       0.2055
     23  C          9.7660  102.4240   82.8980 C.2    15  SER15       0.2642
     24  O         10.9330  102.2500   83.2530 O.2    15  SER15      -0.2714
     25  CB         9.2890  100.7180   81.1340 C.3    15  SER15       0.2130
     26  OG         9.0690  101.7120   80.1480 O.3    15  SER15      -0.2179
     27  N          9.2240  103.6380   82.8300 N.am   16  ILE16      -0.1977
     28  CA        10.0590  104.7860   83.1720 C.3    16  ILE16       0.1596
     29  C          9.9640  105.2120   84.6340 C.2    16  ILE16       0.2287
     30  O         10.5910  106.1810   85.0450 O.2    16  ILE16      -0.2864
     31  CB         9.8140  106.0060   82.2220 C.3    16  ILE16       0.0276
     32  CG1        8.4220  106.5920   82.4090 C.3    16  ILE16       0.0022
     33  CG2       10.0120  105.5730   80.7700 C.3    16  ILE16       0.0022
     34  CD1        8.2210  107.8850   81.6230 C.3    16  ILE16       0.0001
     35  N         -0.2410   92.6570   76.0980 N.3   253  LYS253     -0.1245
     36  CA         0.3830   93.4740   77.1370 C.3   253  LYS253      0.1561
     37  C          1.5190   94.3420   76.5960 C.2   253  LYS253      0.2260
     38  O          1.9950   95.2490   77.2790 O.2   253  LYS253     -0.2867
     39  CB         0.9120   92.5740   78.2590 C.3   253  LYS253      0.0271
     40  CG        -0.1430   91.6630   78.8690 C.3   253  LYS253      0.0035
     41  CD        -1.3100   92.4380   79.4760 C.3   253  LYS253      0.0206
     42  CE        -0.8620   93.3190   80.6290 C.3   253  LYS253      0.1093
     43  NZ        -1.9950   93.6550   81.5390 N.3   253  LYS253     -0.1314
     44  N         -0.8050   98.2970   73.6560 N.3   257  LYS257     -0.1231
     45  CA        -0.9600   99.4620   74.5210 C.3   257  LYS257      0.1678
     46  C         -0.4800  100.7890   73.9170 C.2   257  LYS257      0.2434
     47  O         -1.2560  101.7420   73.8150 O.2   257  LYS257     -0.2733
     48  CB        -0.2580   99.2110   75.8620 C.3   257  LYS257      0.0284
     49  CG        -0.6820   97.9190   76.5670 C.3   257  LYS257      0.0035
     50  CD        -2.1940   97.8130   76.6900 C.3   257  LYS257      0.0206
     51  CE        -2.6300   96.5980   77.5060 C.3   257  LYS257      0.1093
     52  NZ        -2.3870   96.7680   78.9660 N.3   257  LYS257     -0.1314
     53  N          0.8000  100.8810   73.5200 N.am  258  PRO258     -0.2729
     54  CA         1.2400  102.1570   72.9450 C.3   258  PRO258      0.1401
     55  C          0.5360  102.4850   71.6250 C.2   258  PRO258      0.2269
     56  O          0.3080  103.6540   71.3060 O.2   258  PRO258     -0.2865
     57  CB         2.7600  101.9860   72.8150 C.3   258  PRO258      0.0296
     58  CG         2.9580  100.4990   72.7360 C.3   258  PRO258      0.0237
     59  CD         1.9280   99.9520   73.6950 C.3   258  PRO258      0.0939
     60  N         -2.5910  103.9560   72.5140 N.3   261  ALA261     -0.1231
     61  CA        -2.2830  105.2690   73.0660 C.3   261  ALA261      0.1694
     62  C         -2.1200  106.2900   71.9440 C.2   261  ALA261      0.2591
     63  O         -2.6390  107.4040   72.0280 O.2   261  ALA261     -0.2718
     64  CB        -1.0120  105.1980   73.8980 C.3   261  ALA261      0.0304
     65  N         -1.3990  105.9040   70.8960 N.am  262  ALA262     -0.1980
     66  CA        -1.1680  106.7850   69.7580 C.3   262  ALA262      0.1597
     67  C         -2.4770  107.0950   69.0480 C.2   262  ALA262      0.2287
     68  O         -2.7270  108.2360   68.6550 O.2   262  ALA262     -0.2864
     69  CB        -0.1860  106.1430   68.7910 C.3   262  ALA262      0.0319
     70  N         -5.5250  107.0410   70.3260 N.3   264  PHE264     -0.1227
     71  CA        -6.2880  107.9420   71.1770 C.3   264  PHE264      0.1736
     72  C         -5.7720  109.3790   71.0580 C.2   264  PHE264      0.2595
     73  O         -6.5380  110.2900   70.7440 O.2   264  PHE264     -0.2718
     74  CB        -6.2370  107.4900   72.6430 C.3   264  PHE264      0.0547
     75  CG        -7.2100  106.3840   72.9810 C.ar  264  PHE264     -0.0202
     76  CD1       -8.5680  106.5170   72.7000 C.ar  264  PHE264     -0.0042
     77  CD2       -6.7720  105.2240   73.6180 C.ar  264  PHE264     -0.0042
     78  CE1       -9.4760  105.5150   73.0500 C.ar  264  PHE264     -0.0003
     79  CE2       -7.6730  104.2160   73.9720 C.ar  264  PHE264     -0.0003
     80  CZ        -9.0260  104.3620   73.6890 C.ar  264  PHE264     -0.0000
     81  N         -4.4800  109.5860   71.3040 N.am  265  ILE265     -0.1966
     82  CA        -3.9190  110.9300   71.2070 C.3   265  ILE265      0.1727
     83  C         -4.1880  111.5300   69.8270 C.2   265  ILE265      0.2616
     84  O         -4.7030  112.6430   69.7180 O.2   265  ILE265     -0.2715
     85  CB        -2.3880  110.9510   71.4610 C.3   265  ILE265      0.0290
     86  CG1       -2.0950  110.6370   72.9290 C.3   265  ILE265      0.0022
     87  CG2       -1.8220  112.3290   71.1150 C.3   265  ILE265      0.0023
     88  CD1       -0.6190  110.4730   73.2530 C.3   265  ILE265      0.0001
     89  N         -3.8450  110.7850   68.7810 N.am  266  ALA266     -0.1977
     90  CA        -4.0370  111.2440   67.4080 C.3   266  ALA266      0.1597
     91  C         -5.5020  111.5400   67.0950 C.2   266  ALA266      0.2287
     92  O         -5.8100  112.5080   66.3970 O.2   266  ALA266     -0.2864
     93  CB        -3.4930  110.2050   66.4300 C.3   266  ALA266      0.0319
     94  N         -7.8850  112.3870   69.2990 N.3   268  PHE268     -0.1227
     95  CA        -8.2520  113.5920   70.0330 C.3   268  PHE268      0.1736
     96  C         -7.7450  114.8350   69.3150 C.2   268  PHE268      0.2595
     97  O         -8.4580  115.8340   69.2090 O.2   268  PHE268     -0.2718
     98  CB        -7.6880  113.5560   71.4570 C.3   268  PHE268      0.0547
     99  CG        -8.4960  112.7140   72.4080 C.ar  268  PHE268     -0.0202
    100  CD1       -7.9840  111.5250   72.9190 C.ar  268  PHE268     -0.0042
    101  CD2       -9.7730  113.1120   72.7950 C.ar  268  PHE268     -0.0042
    102  CE1       -8.7320  110.7430   73.8020 C.ar  268  PHE268     -0.0003
    103  CE2      -10.5280  112.3370   73.6770 C.ar  268  PHE268     -0.0003
    104  CZ       -10.0050  111.1520   74.1810 C.ar  268  PHE268     -0.0000
    105  N         -6.5110  114.7690   68.8250 N.am  269  ALA269     -0.1980
    106  CA        -5.9190  115.8900   68.1130 C.3   269  ALA269      0.1597
    107  C         -6.7480  116.1650   66.8670 C.2   269  ALA269      0.2287
    108  O         -7.2240  117.2820   66.6550 O.2   269  ALA269     -0.2864
    109  CB        -4.4820  115.5670   67.7270 C.3   269  ALA269      0.0319
@<TRIPOS>BOND
     1    92    91    2
     2    93    90    1
     3   108   107    2
     4   107   106    1
     5    91    90    1
     6    90    89    1
     7   109   106    1
     8   106   105    1
     9    68    67    2
    10    89    83   am
    11    69    66    1
    12   105    96   am
    13    67    66    1
    14    97    96    2
    15    94    95    1
    16    96    95    1
    17    84    83    2
    18    66    65    1
    19    83    82    1
    20    95    98    1
    21    70    71    1
    22    73    72    2
    23    65    62   am
    24    72    71    1
    25    72    81   am
    26    87    85    1
    27    71    74    1
    28    82    81    1
    29    82    85    1
    30    56    55    2
    31    98    99    1
    32    85    86    1
    33    55    54    1
    34    62    63    2
    35    62    61    1
    36    99   101   ar
    37    99   100   ar
    38    60    61    1
    39    74    75    1
    40    76    75   ar
    41    76    78   ar
    42    58    57    1
    43    58    59    1
    44   101   103   ar
    45    57    54    1
    46   100   102   ar
    47    86    88    1
    48    54    53    1
    49    75    77   ar
    50    78    80   ar
    51    61    64    1
    52    53    59    1
    53    53    46   am
    54    77    79   ar
    55    44    45    1
    56   103   104   ar
    57    80    79   ar
    58   102   104   ar
    59    47    46    2
    60    46    45    1
    61    45    48    1
    62    48    49    1
    63    35    36    1
    64    49    50    1
    65    37    36    1
    66    37    38    2
    67    50    51    1
    68    36    39    1
    69    51    52    1
    70    39    40    1
    71    40    41    1
    72    41    42    1
    73    26    25    1
    74    42    43    1
    75    33    31    1
    76    25    22    1
    77    20    18   am
    78    34    32    1
    79    19    18    2
    80    18    17    1
    81    31    32    1
    82    31    28    1
    83    22    21    1
    84    22    23    1
    85    21    15   am
    86    27    23   am
    87    27    28    1
    88    23    24    2
    89    28    29    1
    90    17    14    1
    91    14    15    1
    92    14    13    1
    93    15    16    2
    94     9     8    2
    95    29    30    2
    96    13     8   am
    97     8     7    1
    98     2     3    1
    99     2     1    1
   100     2     5    1
   101     6     3   am
   102     6     7    1
   103     3     4    2
   104     7    10    1
   105    10    12    1
   106    10    11    1
