@<TRIPOS>MOLECULE
tmp/1kqgC00.pdb
 235 228 0 0 0
SMALL
GASTEIGER

@<TRIPOS>ATOM
      1  N        -21.8740  102.5610   79.4450 N.3    24  PHE24      -0.1241
      2  CA       -20.6290  102.6050   78.6850 C.3    24  PHE24       0.1605
      3  C        -19.5740  103.4430   79.3810 C.2    24  PHE24       0.2264
      4  O        -18.4070  103.0060   79.4100 O.2    24  PHE24      -0.2867
      5  CB       -20.9040  103.0690   77.2590 C.3    24  PHE24       0.0534
      6  CG       -19.7210  103.0300   76.3340 C.ar   24  PHE24      -0.0203
      7  CD1      -18.8330  104.1110   76.2560 C.ar   24  PHE24      -0.0042
      8  CD2      -19.5020  101.9020   75.5450 C.ar   24  PHE24      -0.0042
      9  CE1      -17.7460  104.0340   75.3960 C.ar   24  PHE24      -0.0003
     10  CE2      -18.4040  101.8240   74.6840 C.ar   24  PHE24      -0.0003
     11  CZ       -17.5270  102.8930   74.6090 C.ar   24  PHE24      -0.0000
     12  N        -18.1090  101.1620   82.1030 N.3    27  VAL27      -0.1231
     13  CA       -17.4050  100.0330   81.5260 C.3    27  VAL27       0.1692
     14  C        -16.1450  100.4050   80.7680 C.2    27  VAL27       0.2591
     15  O        -15.0800   99.7580   80.8670 O.2    27  VAL27      -0.2718
     16  CB       -18.3520   99.2390   80.6140 C.3    27  VAL27       0.0266
     17  CG1      -17.6460   98.1920   79.7760 C.3    27  VAL27       0.0020
     18  CG2      -19.4890   98.5950   81.4180 C.3    27  VAL27       0.0020
     19  N        -16.1740  101.4700   79.9970 N.am   28  ALA28      -0.1980
     20  CA       -14.9900  101.9090   79.2500 C.3    28  ALA28       0.1597
     21  C        -13.8810  102.4200   80.1830 C.2    28  ALA28       0.2287
     22  O        -12.6730  102.1320   79.9890 O.2    28  ALA28      -0.2864
     23  CB       -15.4430  102.9900   78.2740 C.3    28  ALA28       0.0319
     24  N        -12.4390   99.4990   82.0740 N.3    31  GLY31      -0.1210
     25  CA       -11.6310   98.7710   81.0940 C.3    31  GLY31       0.1956
     26  C        -10.2990   99.4770   80.8620 C.2    31  GLY31       0.2611
     27  O         -9.1960   98.9200   80.7420 O.2    31  GLY31      -0.2717
     28  N        -10.3540  100.8020   80.7210 N.am   32  ILE32      -0.1979
     29  CA        -9.1440  101.5750   80.4540 C.3    32  ILE32       0.1595
     30  C         -8.2150  101.5020   81.6600 C.2    32  ILE32       0.2287
     31  O         -7.0040  101.4170   81.4490 O.2    32  ILE32      -0.2864
     32  CB        -9.4750  103.0320   80.1180 C.3    32  ILE32       0.0276
     33  CG1      -10.0250  103.2620   78.7030 C.3    32  ILE32       0.0022
     34  CG2       -8.2360  103.9420   80.2590 C.3    32  ILE32       0.0022
     35  CD1       -9.0060  103.0720   77.5600 C.3    32  ILE32       0.0001
     36  N         -7.4810   98.9600   83.4730 N.3    34  PHE34      -0.1227
     37  CA        -6.7820   97.7090   83.4740 C.3    34  PHE34       0.1736
     38  C         -5.7950   97.7500   82.3220 C.2    34  PHE34       0.2595
     39  O         -4.7310   97.1610   82.3630 O.2    34  PHE34      -0.2718
     40  CB        -7.6900   96.5000   83.2250 C.3    34  PHE34       0.0547
     41  CG        -8.9140   96.3910   84.0990 C.ar   34  PHE34      -0.0202
     42  CD1       -8.8300   96.5000   85.4840 C.ar   34  PHE34      -0.0042
     43  CD2      -10.1670   96.1390   83.5460 C.ar   34  PHE34      -0.0042
     44  CE1       -9.9880   96.4030   86.2540 C.ar   34  PHE34      -0.0003
     45  CE2      -11.3200   96.0010   84.3050 C.ar   34  PHE34      -0.0003
     46  CZ       -11.2410   96.1470   85.6740 C.ar   34  PHE34      -0.0000
     47  N         -6.2080   98.4170   81.2610 N.am   35  PHE35      -0.1976
     48  CA        -5.3650   98.5430   80.0550 C.3    35  PHE35       0.1639
     49  C         -4.1600   99.4650   80.2130 C.2    35  PHE35       0.2290
     50  O         -3.0800   99.1670   79.7280 O.2    35  PHE35      -0.2864
     51  CB        -6.2500   99.0980   78.9200 C.3    35  PHE35       0.0560
     52  CG        -5.6390   99.0320   77.5350 C.ar   35  PHE35      -0.0200
     53  CD1       -4.9100  100.0870   76.9870 C.ar   35  PHE35      -0.0042
     54  CD2       -5.8100   97.8800   76.7720 C.ar   35  PHE35      -0.0042
     55  CE1       -4.3550   99.9890   75.7230 C.ar   35  PHE35      -0.0003
     56  CE2       -5.2690   97.7780   75.5040 C.ar   35  PHE35      -0.0003
     57  CZ        -4.5410   98.8330   74.9870 C.ar   35  PHE35      -0.0000
     58  N        -13.2120   95.3380   89.1230 N.3    53  ARG53      -0.1245
     59  CA       -12.9570   94.0440   88.4850 C.3    53  ARG53       0.1563
     60  C        -14.2850   93.2730   88.5040 C.2    53  ARG53       0.2260
     61  O        -14.5710   92.6770   87.4510 O.2    53  ARG53      -0.2867
     62  CB       -11.7600   93.3380   89.0900 C.3    53  ARG53       0.0307
     63  CG       -11.3500   91.9940   88.5850 C.3    53  ARG53       0.0489
     64  CD       -12.1830   90.7840   88.9120 C.3    53  ARG53       0.2205
     65  NE       -12.4160   90.4290   90.2760 N.pl3  53  ARG53      -0.0865
     66  CZ       -13.2570   89.5520   90.7990 C.cat  53  ARG53       0.5346
     67  NH1      -14.0330   88.8880   89.9630 N.pl3  53  ARG53       0.1354
     68  NH2      -13.4000   89.3010   92.1130 N.pl3  53  ARG53       0.1354
     69  N        -17.3300   95.4330   86.1450 N.3    56  HIS56      -0.1227
     70  CA       -17.1260   95.6520   84.7120 C.3    56  HIS56       0.1737
     71  C        -17.9460   94.7010   83.8570 C.2    56  HIS56       0.2438
     72  O        -18.7650   95.1730   83.0670 O.2    56  HIS56      -0.2733
     73  CB       -15.6420   95.6030   84.3530 C.3    56  HIS56       0.0758
     74  CG       -15.3580   95.6860   82.8730 C.ar   56  HIS56       0.0818
     75  ND1      -14.9810   96.8830   82.2730 N.ar   56  HIS56      -0.2268
     76  CD2      -15.3930   94.7550   81.8800 C.ar   56  HIS56       0.1154
     77  CE1      -14.7640   96.6620   80.9860 C.ar   56  HIS56       0.1986
     78  NE2      -15.0080   95.3870   80.7350 N.ar   56  HIS56      -0.2212
     79  N        -17.7640   93.3990   83.9410 N.am   57  PRO57      -0.2729
     80  CA       -18.4330   92.4350   83.0800 C.3    57  PRO57       0.1401
     81  C        -19.9450   92.4730   83.2110 C.2    57  PRO57       0.2269
     82  O        -20.6920   92.2860   82.2430 O.2    57  PRO57      -0.2865
     83  CB       -17.8240   91.0860   83.5130 C.3    57  PRO57       0.0296
     84  CG       -17.5430   91.3690   84.9640 C.3    57  PRO57       0.0237
     85  CD       -16.8250   92.7160   84.8540 C.3    57  PRO57       0.0939
     86  N        -21.1290   95.3180   81.3580 N.3    60  GLY60      -0.1210
     87  CA       -20.8130   94.9780   79.9740 C.3    60  GLY60       0.1956
     88  C        -22.0140   94.1980   79.4270 C.2    60  GLY60       0.2611
     89  O        -22.4890   94.5180   78.3460 O.2    60  GLY60      -0.2717
     90  N        -22.4830   93.1620   80.1110 N.am   61  ILE61      -0.1979
     91  CA       -23.6160   92.3810   79.6730 C.3    61  ILE61       0.1595
     92  C        -24.8360   93.2720   79.4950 C.2    61  ILE61       0.2287
     93  O        -25.5370   93.1410   78.4880 O.2    61  ILE61      -0.2864
     94  CB       -23.9820   91.2870   80.6860 C.3    61  ILE61       0.0276
     95  CG1      -22.9050   90.2160   80.6260 C.3    61  ILE61       0.0022
     96  CG2      -25.3320   90.6530   80.3780 C.3    61  ILE61       0.0022
     97  CD1      -22.8670   89.6720   79.2150 C.3    61  ILE61       0.0001
     98  N        -24.9720   96.4670   78.6770 N.3    63  ILE63      -0.1231
     99  CA       -24.8100   97.2090   77.4360 C.3    63  ILE63       0.1692
    100  C        -25.1980   96.3320   76.2410 C.2    63  ILE63       0.2588
    101  O        -25.8520   96.8380   75.3180 O.2    63  ILE63      -0.2718
    102  CB       -23.3580   97.7040   77.2800 C.3    63  ILE63       0.0266
    103  CG1      -23.0660   98.7770   78.3240 C.3    63  ILE63       0.0019
    104  CG2      -23.1910   98.2320   75.8510 C.3    63  ILE63       0.0020
    105  CD1      -21.7800   99.5770   78.1740 C.3    63  ILE63       0.0001
    106  N        -24.7870   95.0720   76.2220 N.am   64  PHE64      -0.2029
    107  CA       -25.0230   94.1840   75.0950 C.3    64  PHE64       0.1325
    108  C        -26.5170   93.9190   74.9980 C.3    64  PHE64       0.2039
    109  O        -26.9680   93.9160   73.8570 O.3    64  PHE64      -0.2185
    110  CB       -24.2680   92.8830   75.2450 C.3    64  PHE64       0.0507
    111  CG       -24.6320   91.8820   74.1860 C.ar   64  PHE64      -0.0204
    112  CD1      -23.9560   91.9060   72.9840 C.ar   64  PHE64      -0.0042
    113  CD2      -25.6060   90.9340   74.4390 C.ar   64  PHE64      -0.0042
    114  CE1      -24.2560   90.9440   72.0260 C.ar   64  PHE64      -0.0003
    115  CE2      -25.8870   89.9840   73.4920 C.ar   64  PHE64      -0.0003
    116  CZ       -25.2220   89.9890   72.2830 C.ar   64  PHE64      -0.0000
    117  N        -19.4280   94.9410   69.9740 N.3   123  ILE123     -0.1245
    118  CA       -20.0940   94.5160   71.2020 C.3   123  ILE123      0.1561
    119  C        -20.3220   93.0040   71.2240 C.2   123  ILE123      0.2260
    120  O        -20.3530   92.3210   72.2570 O.2   123  ILE123     -0.2867
    121  CB       -21.4140   95.2240   71.5120 C.3   123  ILE123      0.0252
    122  CG1      -21.7150   95.2230   73.0290 C.3   123  ILE123      0.0019
    123  CG2      -22.5540   94.4240   70.8920 C.3   123  ILE123      0.0019
    124  CD1      -20.8790   96.2150   73.8120 C.3   123  ILE123      0.0001
    125  N        -16.8450   91.6450   72.0420 N.3   126  LEU126     -0.1231
    126  CA       -16.6220   91.9170   73.4420 C.3   126  LEU126      0.1693
    127  C        -17.4370   90.9750   74.3070 C.2   126  LEU126      0.2591
    128  O        -16.9930   90.4390   75.3430 O.2   126  LEU126     -0.2718
    129  CB       -16.8720   93.3930   73.7120 C.3   126  LEU126      0.0284
    130  CG       -15.7600   94.3460   73.2250 C.3   126  LEU126      0.0019
    131  CD1      -16.2870   95.7820   73.3130 C.3   126  LEU126      0.0001
    132  CD2      -14.4160   94.3060   73.9220 C.3   126  LEU126      0.0001
    133  N        -18.6530   90.6610   73.9120 N.am  127  LEU127     -0.1980
    134  CA       -19.4700   89.7420   74.6940 C.3   127  LEU127      0.1596
    135  C        -18.8490   88.3550   74.7000 C.2   127  LEU127      0.2287
    136  O        -18.7030   87.7850   75.7680 O.2   127  LEU127     -0.2864
    137  CB       -20.8790   89.6180   74.1090 C.3   127  LEU127      0.0297
    138  CG       -21.7000   88.5050   74.7970 C.3   127  LEU127      0.0022
    139  CD1      -22.2510   89.2200   76.0370 C.3   127  LEU127      0.0001
    140  CD2      -22.7930   87.8170   73.9990 C.3   127  LEU127      0.0001
    141  N        -15.3540   88.4660   76.3700 N.3   130  GLY130     -0.1210
    142  CA       -15.6020   88.8260   77.7680 C.3   130  GLY130      0.1956
    143  C        -16.0280   87.6000   78.5720 C.2   130  GLY130      0.2611
    144  O        -15.5060   87.3200   79.6560 O.2   130  GLY130     -0.2717
    145  N        -16.9540   86.8090   78.0530 N.am  131  VAL131     -0.1979
    146  CA       -17.4170   85.6430   78.7920 C.3   131  VAL131      0.1595
    147  C        -16.2560   84.6910   79.0100 C.2   131  VAL131      0.2287
    148  O        -16.0560   84.1310   80.0910 O.2   131  VAL131     -0.2864
    149  CB       -18.5670   84.9530   78.0460 C.3   131  VAL131      0.0276
    150  CG1      -18.7940   83.5110   78.4240 C.3   131  VAL131      0.0022
    151  CG2      -19.7990   85.8220   78.3680 C.3   131  VAL131      0.0022
    152  N        -13.0980   85.1990   79.3270 N.3   133  ILE133     -0.1231
    153  CA       -12.1000   85.6270   80.2840 C.3   133  ILE133      0.1692
    154  C        -12.6840   85.9810   81.6340 C.2   133  ILE133      0.2592
    155  O        -11.9680   86.4230   82.5300 O.2   133  ILE133     -0.2718
    156  CB       -11.3520   86.8480   79.7320 C.3   133  ILE133      0.0266
    157  CG1      -12.2440   88.0740   79.6530 C.3   133  ILE133      0.0019
    158  CG2      -10.8590   86.4680   78.3430 C.3   133  ILE133      0.0020
    159  CD1      -11.5140   89.2750   79.1060 C.3   133  ILE133      0.0001
    160  N        -13.9650   85.7860   81.8520 N.am  134  TRP134     -0.1962
    161  CA       -14.6210   86.0510   83.1260 C.3   134  TRP134      0.1771
    162  C        -14.4000   85.0360   84.2540 C.2   134  TRP134      0.2616
    163  O        -14.9340   83.9140   84.2810 O.2   134  TRP134     -0.2715
    164  CB       -16.1170   86.1170   82.7950 C.3   134  TRP134      0.0590
    165  CG       -16.9600   86.8680   83.7650 C.ar  134  TRP134      0.0006
    166  CD1      -16.7090   87.1580   85.0780 C.ar  134  TRP134      0.0946
    167  CD2      -18.2660   87.4010   83.5010 C.ar  134  TRP134      0.0152
    168  NE1      -17.7300   87.8660   85.6530 N.ar  134  TRP134     -0.2442
    169  CE2      -18.7080   88.0290   84.7000 C.ar  134  TRP134      0.0810
    170  CE3      -19.1100   87.3930   82.3650 C.ar  134  TRP134      0.0012
    171  CZ2      -19.9580   88.6570   84.8070 C.ar  134  TRP134      0.0191
    172  CZ3      -20.3360   88.0240   82.4620 C.ar  134  TRP134      0.0001
    173  CH2      -20.7300   88.6360   83.6720 C.ar  134  TRP134      0.0015
    174  N        -13.6290   85.4480   85.2800 N.am  135  ARG135     -0.2030
    175  CA       -13.4280   84.6070   86.4770 C.3   135  ARG135      0.1283
    176  C        -14.2870   85.2460   87.5550 C.3   135  ARG135      0.2036
    177  O        -14.3210   86.4650   87.4730 O.3   135  ARG135     -0.2185
    178  CB       -11.9250   84.5760   86.8000 C.3   135  ARG135      0.0281
    179  CG       -11.1500   83.5160   86.0040 C.3   135  ARG135      0.0488
    180  CD        -9.6630   83.7410   85.9720 C.3   135  ARG135      0.2205
    181  NE        -8.9640   83.1500   84.8480 N.pl3 135  ARG135     -0.0865
    182  CZ        -8.8220   81.8640   84.5600 C.cat 135  ARG135      0.5346
    183  NH1       -9.3660   80.8980   85.3000 N.pl3 135  ARG135      0.1354
    184  NH2       -8.0770   81.5330   83.4930 N.pl3 135  ARG135      0.1354
    185  N         -8.0840   87.2310   75.7320 N.3   151  LEU151     -0.1245
    186  CA        -7.5970   88.3950   76.4670 C.3   151  LEU151      0.1561
    187  C         -7.0760   89.3890   75.4430 C.2   151  LEU151      0.2260
    188  O         -7.3470   90.5890   75.4760 O.2   151  LEU151     -0.2867
    189  CB        -6.5230   87.9880   77.4760 C.3   151  LEU151      0.0270
    190  CG        -7.0280   87.3170   78.7730 C.3   151  LEU151      0.0019
    191  CD1       -5.9490   86.5950   79.5740 C.3   151  LEU151      0.0001
    192  CD2       -7.7320   88.4130   79.5610 C.3   151  LEU151      0.0001
    193  N        -10.2740   90.8290   73.2790 N.3   154  HIS154     -0.1226
    194  CA       -11.1310   91.7030   74.0780 C.3   154  HIS154      0.1752
    195  C        -10.4540   93.0410   74.2820 C.2   154  HIS154      0.2595
    196  O        -11.1000   94.0760   74.2260 O.2   154  HIS154     -0.2718
    197  CB       -11.4520   91.0170   75.3990 C.3   154  HIS154      0.0759
    198  CG       -12.5350   91.7060   76.1480 C.ar  154  HIS154      0.0818
    199  ND1      -13.8530   91.2960   76.0330 N.ar  154  HIS154     -0.2268
    200  CD2      -12.5480   92.7120   77.0640 C.ar  154  HIS154      0.1154
    201  CE1      -14.6080   92.0340   76.8560 C.ar  154  HIS154      0.1986
    202  NE2      -13.8500   92.9150   77.4830 N.ar  154  HIS154     -0.2212
    203  N         -9.1460   93.0960   74.5240 N.am  155  ALA155     -0.1980
    204  CA        -8.4730   94.3520   74.8130 C.3   155  ALA155      0.1597
    205  C         -8.5480   95.2110   73.5680 C.2   155  ALA155      0.2287
    206  O         -8.8490   96.3830   73.6360 O.2   155  ALA155     -0.2864
    207  CB        -6.9960   94.0410   75.0590 C.3   155  ALA155      0.0319
    208  N        -12.2250   96.3330   72.7240 N.3   158  GLY158     -0.1210
    209  CA       -12.6290   97.4020   73.6240 C.3   158  GLY158      0.1956
    210  C        -11.9650   98.7110   73.2240 C.2   158  GLY158      0.2611
    211  O        -12.5840   99.7510   73.3960 O.2   158  GLY158     -0.2717
    212  N        -10.7250   98.7350   72.7820 N.am  159  ILE159     -0.1979
    213  CA       -10.0170   99.9550   72.4270 C.3   159  ILE159      0.1595
    214  C        -10.6500  100.4730   71.1370 C.2   159  ILE159      0.2287
    215  O        -10.9380  101.6630   70.9800 O.2   159  ILE159     -0.2864
    216  CB        -8.4830   99.7410   72.2410 C.3   159  ILE159      0.0276
    217  CG1       -7.8160   99.4950   73.6150 C.3   159  ILE159      0.0022
    218  CG2       -7.7900  100.9200   71.5670 C.3   159  ILE159      0.0022
    219  CD1       -8.3690  100.5060   74.6360 C.3   159  ILE159      0.0001
    220  N        -13.7720   99.9650   69.9820 N.3   161  LEU161     -0.1231
    221  CA       -15.0620  100.5350   70.3140 C.3   161  LEU161      0.1693
    222  C        -14.9290  101.8710   71.0250 C.2   161  LEU161      0.2591
    223  O        -15.7570  102.7360   70.7250 O.2   161  LEU161     -0.2718
    224  CB       -15.9110   99.4790   71.0390 C.3   161  LEU161      0.0284
    225  CG       -17.2640   99.9580   71.6140 C.3   161  LEU161      0.0019
    226  CD1      -18.1810  100.3750   70.4700 C.3   161  LEU161      0.0001
    227  CD2      -17.9630   98.9470   72.5070 C.3   161  LEU161      0.0001
    228  N        -13.9900  102.1250   71.9360 N.am  162  ILE162     -0.1980
    229  CA       -13.8270  103.3960   72.6230 C.3   162  ILE162      0.1595
    230  C        -13.4900  104.4600   71.5920 C.2   162  ILE162      0.2287
    231  O        -14.0810  105.5430   71.5590 O.2   162  ILE162     -0.2864
    232  CB       -12.7610  103.2720   73.7350 C.3   162  ILE162      0.0276
    233  CG1      -13.3590  102.3430   74.7990 C.3   162  ILE162      0.0022
    234  CG2      -12.4020  104.6540   74.2410 C.3   162  ILE162      0.0022
    235  CD1      -12.6440  102.0420   76.1030 C.3   162  ILE162      0.0001
@<TRIPOS>BOND
     1   117   118    1
     2   220   221    1
     3   221   222    1
     4   221   224    1
     5   226   225    1
     6   223   222    2
     7   123   121    1
     8   215   214    2
     9   222   228   am
    10   224   225    1
    11   214   213    1
    12   118   119    1
    13   118   121    1
    14   119   120    2
    15   121   122    1
    16   231   230    2
    17   218   216    1
    18   230   229    1
    19   225   227    1
    20   228   229    1
    21   114   116   ar
    22   114   112   ar
    23   125   126    1
    24   216   213    1
    25   216   217    1
    26   116   115   ar
    27   213   212    1
    28   229   232    1
    29   208   209    1
    30   212   210   am
    31   112   111   ar
    32   122   124    1
    33   210   211    2
    34   210   209    1
    35   130   131    1
    36   130   129    1
    37   130   132    1
    38   193   194    1
    39   126   129    1
    40   126   127    1
    41   115   113   ar
    42   205   206    2
    43   205   204    1
    44   217   219    1
    45   232   234    1
    46   232   233    1
    47   109   108    1
    48   133   127   am
    49   133   134    1
    50   140   138    1
    51   194   195    1
    52   194   197    1
    53   137   134    1
    54   137   138    1
    55   111   113   ar
    56   111   110    1
    57   196   195    2
    58   195   203   am
    59   127   128    2
    60   203   204    1
    61    11    10   ar
    62    11     9   ar
    63    10     8   ar
    64   134   135    1
    65   135   136    2
    66   138   139    1
    67   233   235    1
    68   204   207    1
    69    57    56   ar
    70    57    55   ar
    71   108   107    1
    72   107   110    1
    73   107   106    1
    74   101   100    2
    75     9     7   ar
    76   197   198    1
    77   187   188    2
    78   187   186    1
    79    56    54   ar
    80     8     6   ar
    81    55    53   ar
    82   185   186    1
    83   104   102    1
    84   199   198   ar
    85   199   201   ar
    86   198   200   ar
    87   106   100   am
    88   100    99    1
    89     7     6   ar
    90     6     5    1
    91   141   142    1
    92   186   189    1
    93    54    52   ar
    94   201   202   ar
    95    53    52   ar
    96   200   202   ar
    97     5     2    1
    98   102    99    1
    99   102   103    1
   100    99    98    1
   101   189   190    1
   102    52    51    1
   103    35    33    1
   104   142   143    1
   105   149   151    1
   106   149   150    1
   107   149   146    1
   108   145   143   am
   109   145   146    1
   110   105   103    1
   111    23    20    1
   112   158   156    1
   113    89    88    2
   114    93    92    2
   115   143   144    2
   116     2     3    1
   117     2     1    1
   118    33    32    1
   119   190   192    1
   120   190   191    1
   121   146   147    1
   122    51    48    1
   123   147   148    2
   124   159   157    1
   125    97    95    1
   126    20    19    1
   127    20    21    1
   128   152   153    1
   129     3     4    2
   130    88    87    1
   131    88    90   am
   132    92    91    1
   133   157   156    1
   134    91    90    1
   135    91    94    1
   136    50    49    2
   137   156   153    1
   138    17    16    1
   139    87    86    1
   140    22    21    2
   141    19    14   am
   142    48    49    1
   143    48    47    1
   144    32    34    1
   145    32    29    1
   146   153   154    1
   147    96    94    1
   148    29    28    1
   149    29    30    1
   150    16    18    1
   151    16    13    1
   152    95    94    1
   153    28    26   am
   154    78    77   ar
   155    78    76   ar
   156    27    26    2
   157    14    15    2
   158    14    13    1
   159    26    25    1
   160    77    75   ar
   161    25    24    1
   162    47    38   am
   163    31    30    2
   164    13    12    1
   165   154   160   am
   166   154   155    2
   167   160   161    1
   168    76    74   ar
   169    82    81    2
   170    75    74   ar
   171    38    39    2
   172    38    37    1
   173   170   172   ar
   174   170   167   ar
   175   172   173   ar
   176   164   161    1
   177   164   165    1
   178    74    73    1
   179    72    71    2
   180    80    81    1
   181    80    83    1
   182    80    79    1
   183   161   162    1
   184    40    37    1
   185    40    41    1
   186    36    37    1
   187   184   182    1
   188   167   165   ar
   189   167   169   ar
   190    83    84    1
   191    43    41   ar
   192    43    45   ar
   193   173   171   ar
   194   165   166   ar
   195    71    79   am
   196    71    70    1
   197    79    85    1
   198    41    42   ar
   199   162   163    2
   200   162   174   am
   201    45    46   ar
   202    73    70    1
   203   182   181    2
   204   182   183    1
   205   169   171   ar
   206   169   168   ar
   207    70    69    1
   208   181   180    1
   209    85    84    1
   210   166   168   ar
   211   174   175    1
   212    42    44   ar
   213    46    44   ar
   214   180   179    1
   215   179   178    1
   216   175   178    1
   217   175   176    1
   218    61    60    2
   219   177   176    1
   220    59    60    1
   221    59    62    1
   222    59    58    1
   223    63    64    1
   224    63    62    1
   225    64    65    1
   226    67    66    1
   227    65    66    2
   228    66    68    1
