@<TRIPOS>MOLECULE
tmp/1kqgB01.pdb
 109 106 0 0 0
SMALL
GASTEIGER

@<TRIPOS>ATOM
      1  N          2.4540   95.9570   86.5160 N.3    12  ALA12      -0.1231
      2  CA         1.7020   97.1180   86.0750 C.3    12  ALA12       0.1694
      3  C          2.3230   98.4250   86.5270 C.2    12  ALA12       0.2593
      4  O          1.7020   99.2760   87.1390 O.2    12  ALA12      -0.2718
      5  CB         0.2440   97.0530   86.5630 C.3    12  ALA12       0.0304
      6  N          3.5990   98.5630   86.2340 N.am   13  THR13      -0.1939
      7  CA         4.3720   99.7330   86.6270 C.3    13  THR13       0.2028
      8  C          5.1160  100.1670   85.3620 C.2    13  THR13       0.2642
      9  O          5.8020   99.3780   84.6940 O.2    13  THR13      -0.2714
     10  CB         5.3750   99.3390   87.7340 C.3    13  THR13       0.1808
     11  OG1        4.5970   98.9370   88.8730 O.3    13  THR13      -0.2208
     12  CG2        6.2930  100.4840   88.1060 C.3    13  THR13       0.0379
     13  N          4.9430  101.4450   85.0320 N.am   14  ASN14      -0.1957
     14  CA         5.6130  101.9570   83.8300 C.3    14  ASN14       0.1819
     15  C          7.1290  101.7480   83.9060 C.2    14  ASN14       0.2622
     16  O          7.7940  101.9670   84.9400 O.2    14  ASN14      -0.2715
     17  CB         5.1800  103.4240   83.6280 C.3    14  ASN14       0.1195
     18  CG         5.6250  103.8820   82.2230 C.2    14  ASN14       0.2630
     19  OD1        6.8130  104.1720   81.9170 O.2    14  ASN14      -0.2716
     20  ND2        4.6660  103.9400   81.2770 N.am   14  ASN14      -0.0877
     21  N          7.7520  101.4300   82.7770 N.am   15  SER15      -0.1936
     22  CA         9.1850  101.2020   82.7320 C.3    15  SER15       0.2055
     23  C          9.9870  102.4350   83.0530 C.2    15  SER15       0.2642
     24  O         11.1600  102.2030   83.3480 O.2    15  SER15      -0.2714
     25  CB         9.5640  100.6350   81.3600 C.3    15  SER15       0.2130
     26  OG         8.9740  101.5150   80.3760 O.3    15  SER15      -0.2179
     27  N          9.4560  103.6450   82.9690 N.am   16  ILE16      -0.1977
     28  CA        10.2810  104.8070   83.3490 C.3    16  ILE16       0.1596
     29  C         10.1140  105.1970   84.8120 C.2    16  ILE16       0.2287
     30  O         10.7240  106.2070   85.2080 O.2    16  ILE16      -0.2864
     31  CB        10.0520  106.0030   82.4160 C.3    16  ILE16       0.0276
     32  CG1        8.7020  106.6650   82.6420 C.3    16  ILE16       0.0022
     33  CG2       10.0180  105.4300   80.9910 C.3    16  ILE16       0.0022
     34  CD1        8.6150  108.0630   82.0740 C.3    16  ILE16       0.0001
     35  N          0.1650   92.6770   76.1340 N.3   253  LYS253     -0.1245
     36  CA         0.7890   93.4460   77.2110 C.3   253  LYS253      0.1561
     37  C          1.8840   94.3270   76.6690 C.2   253  LYS253      0.2260
     38  O          2.2960   95.2260   77.3920 O.2   253  LYS253     -0.2867
     39  CB         1.3550   92.5410   78.3250 C.3   253  LYS253      0.0271
     40  CG         0.2290   91.6890   78.9310 C.3   253  LYS253      0.0035
     41  CD        -0.9710   92.4820   79.4150 C.3   253  LYS253      0.0206
     42  CE        -0.6360   93.5670   80.4230 C.3   253  LYS253      0.1093
     43  NZ        -1.6590   93.6180   81.5400 N.3   253  LYS253     -0.1314
     44  N         -0.4250   98.3280   73.7200 N.3   257  LYS257     -0.1231
     45  CA        -0.6000   99.4650   74.6030 C.3   257  LYS257      0.1678
     46  C         -0.1560  100.7740   73.9930 C.2   257  LYS257      0.2434
     47  O         -0.9290  101.7280   73.8580 O.2   257  LYS257     -0.2733
     48  CB         0.0530   99.1460   75.9580 C.3   257  LYS257      0.0284
     49  CG        -0.3840   97.8180   76.5410 C.3   257  LYS257      0.0035
     50  CD        -1.8660   97.8140   76.8780 C.3   257  LYS257      0.0206
     51  CE        -2.2200   96.5120   77.5950 C.3   257  LYS257      0.1093
     52  NZ        -1.9880   96.6320   79.0650 N.3   257  LYS257     -0.1314
     53  N          1.1050  100.9280   73.5880 N.am  258  PRO258     -0.2729
     54  CA         1.5960  102.2020   73.0430 C.3   258  PRO258      0.1401
     55  C          0.8670  102.5490   71.7500 C.2   258  PRO258      0.2269
     56  O          0.4980  103.6770   71.4530 O.2   258  PRO258     -0.2865
     57  CB         3.0760  101.9590   72.7990 C.3   258  PRO258      0.0296
     58  CG         3.1510  100.4680   72.6560 C.3   258  PRO258      0.0237
     59  CD         2.1890   99.9130   73.6910 C.3   258  PRO258      0.0939
     60  N         -2.3090  103.9580   72.6610 N.3   261  ALA261     -0.1231
     61  CA        -2.0080  105.2680   73.2130 C.3   261  ALA261      0.1694
     62  C         -1.8530  106.2630   72.0630 C.2   261  ALA261      0.2591
     63  O         -2.4100  107.3820   72.0340 O.2   261  ALA261     -0.2718
     64  CB        -0.7040  105.1510   74.0270 C.3   261  ALA261      0.0304
     65  N         -1.0320  105.8750   71.0450 N.am  262  ALA262     -0.1980
     66  CA        -0.8400  106.8100   69.9120 C.3   262  ALA262      0.1597
     67  C         -2.1680  107.1190   69.2180 C.2   262  ALA262      0.2287
     68  O         -2.5170  108.2700   69.0080 O.2   262  ALA262     -0.2864
     69  CB         0.1960  106.3220   68.9320 C.3   262  ALA262      0.0319
     70  N         -5.2820  106.9820   70.4420 N.3   264  PHE264     -0.1227
     71  CA        -6.0230  107.9040   71.2920 C.3   264  PHE264      0.1736
     72  C         -5.4510  109.3180   71.2210 C.2   264  PHE264      0.2595
     73  O         -6.2010  110.2710   71.0170 O.2   264  PHE264     -0.2718
     74  CB        -6.0680  107.4910   72.7580 C.3   264  PHE264      0.0547
     75  CG        -6.9680  106.3500   73.0930 C.ar  264  PHE264     -0.0202
     76  CD1       -8.3270  106.4580   72.7860 C.ar  264  PHE264     -0.0042
     77  CD2       -6.5120  105.1990   73.7080 C.ar  264  PHE264     -0.0042
     78  CE1       -9.2070  105.4220   73.0940 C.ar  264  PHE264     -0.0003
     79  CE2       -7.3830  104.1620   74.0170 C.ar  264  PHE264     -0.0003
     80  CZ        -8.7330  104.2650   73.7140 C.ar  264  PHE264     -0.0000
     81  N         -4.1420  109.5260   71.3780 N.am  265  ILE265     -0.1966
     82  CA        -3.6310  110.8940   71.3790 C.3   265  ILE265      0.1727
     83  C         -3.9290  111.5180   70.0200 C.2   265  ILE265      0.2616
     84  O         -4.4870  112.6040   69.9210 O.2   265  ILE265     -0.2715
     85  CB        -2.1280  110.9880   71.6600 C.3   265  ILE265      0.0290
     86  CG1       -1.7810  110.7940   73.1510 C.3   265  ILE265      0.0022
     87  CG2       -1.5640  112.3240   71.1930 C.3   265  ILE265      0.0023
     88  CD1       -0.3410  110.2220   73.1500 C.3   265  ILE265      0.0001
     89  N         -3.5530  110.8110   68.9670 N.am  266  ALA266     -0.1977
     90  CA        -3.7500  111.2510   67.5780 C.3   266  ALA266      0.1597
     91  C         -5.2120  111.5740   67.2850 C.2   266  ALA266      0.2287
     92  O         -5.5580  112.5950   66.7220 O.2   266  ALA266     -0.2864
     93  CB        -3.3400  110.0970   66.6420 C.3   266  ALA266      0.0319
     94  N         -7.6420  112.3430   69.4540 N.3   268  PHE268     -0.1227
     95  CA        -8.0180  113.5440   70.1870 C.3   268  PHE268      0.1736
     96  C         -7.4860  114.7900   69.4890 C.2   268  PHE268      0.2595
     97  O         -8.1570  115.8080   69.4030 O.2   268  PHE268     -0.2718
     98  CB        -7.4640  113.5310   71.6200 C.3   268  PHE268      0.0547
     99  CG        -8.2350  112.6390   72.5660 C.ar  268  PHE268     -0.0202
    100  CD1       -7.7140  111.4570   73.0890 C.ar  268  PHE268     -0.0042
    101  CD2       -9.5210  113.0350   72.9670 C.ar  268  PHE268     -0.0042
    102  CE1       -8.4620  110.6860   73.9830 C.ar  268  PHE268     -0.0003
    103  CE2      -10.2720  112.2560   73.8480 C.ar  268  PHE268     -0.0003
    104  CZ        -9.7460  111.0780   74.3710 C.ar  268  PHE268     -0.0000
    105  N         -6.2360  114.7540   69.0160 N.am  269  ALA269     -0.1980
    106  CA        -5.6540  115.8990   68.3140 C.3   269  ALA269      0.1597
    107  C         -6.5080  116.1720   67.0690 C.2   269  ALA269      0.2287
    108  O         -7.1290  117.2250   66.8830 O.2   269  ALA269     -0.2864
    109  CB        -4.2030  115.6640   67.8990 C.3   269  ALA269      0.0319
@<TRIPOS>BOND
     1    93    90    1
     2    92    91    2
     3   108   107    2
     4   107   106    1
     5    91    90    1
     6    90    89    1
     7   109   106    1
     8   106   105    1
     9    69    66    1
    10    89    83   am
    11    68    67    2
    12   105    96   am
    13    67    66    1
    14    97    96    2
    15    94    95    1
    16    96    95    1
    17    66    65    1
    18    84    83    2
    19    83    82    1
    20    95    98    1
    21    70    71    1
    22    73    72    2
    23    65    62   am
    24    87    85    1
    25    72    71    1
    26    72    81   am
    27    71    74    1
    28    81    82    1
    29    82    85    1
    30    56    55    2
    31    98    99    1
    32    85    86    1
    33    55    54    1
    34    63    62    2
    35    62    61    1
    36    99   101   ar
    37    99   100   ar
    38    58    57    1
    39    58    59    1
    40    60    61    1
    41    74    75    1
    42    76    75   ar
    43    76    78   ar
    44    57    54    1
    45   101   103   ar
    46    54    53    1
    47   100   102   ar
    48    75    77   ar
    49    78    80   ar
    50    88    86    1
    51    61    64    1
    52    53    59    1
    53    53    46   am
    54    77    79   ar
    55    80    79   ar
    56    44    45    1
    57   103   104   ar
    58    47    46    2
    59   102   104   ar
    60    46    45    1
    61    45    48    1
    62    48    49    1
    63    35    36    1
    64    49    50    1
    65    37    36    1
    66    37    38    2
    67    50    51    1
    68    36    39    1
    69    51    52    1
    70    39    40    1
    71    40    41    1
    72    41    42    1
    73    26    25    1
    74    42    43    1
    75    33    31    1
    76    20    18   am
    77    25    22    1
    78    19    18    2
    79    34    32    1
    80    18    17    1
    81    31    32    1
    82    31    28    1
    83    22    21    1
    84    22    23    1
    85    21    15   am
    86    27    23   am
    87    27    28    1
    88    23    24    2
    89    28    29    1
    90    17    14    1
    91    14    15    1
    92    14    13    1
    93    15    16    2
    94     9     8    2
    95    29    30    2
    96    13     8   am
    97     8     7    1
    98     2     1    1
    99     2     3    1
   100     2     5    1
   101     6     3   am
   102     6     7    1
   103     3     4    2
   104     7    10    1
   105    10    12    1
   106    10    11    1
