@<TRIPOS>MOLECULE
tmp/1kqgC01.pdb
 255 245 0 0 0
SMALL
GASTEIGER

@<TRIPOS>ATOM
      1  N        -37.7430  112.5950   65.4630 N.3     8  ARG8       -0.1231
      2  CA       -36.7540  111.7350   64.7950 C.3     8  ARG8        0.1694
      3  C        -36.6290  110.4500   65.6130 C.2     8  ARG8        0.2592
      4  O        -36.4220  109.4060   64.9690 O.2     8  ARG8       -0.2718
      5  CB       -35.4010  112.4550   64.6570 C.3     8  ARG8        0.0321
      6  CG       -34.4900  111.8350   63.5930 C.3     8  ARG8        0.0489
      7  CD       -33.3350  112.7760   63.3290 C.3     8  ARG8        0.2205
      8  NE       -32.1340  112.0890   62.8920 N.pl3   8  ARG8       -0.0865
      9  CZ       -31.9610  111.4890   61.7250 C.cat   8  ARG8        0.5346
     10  NH1      -32.9440  111.4720   60.8350 N.pl3   8  ARG8        0.1354
     11  NH2      -30.8470  110.8630   61.3320 N.pl3   8  ARG8        0.1354
     12  N        -36.7720  110.5940   66.9570 N.am    9  THR9       -0.1953
     13  CA       -36.5350  109.4260   67.8050 C.3     9  THR9        0.1897
     14  C        -37.6220  109.2710   68.8680 C.2     9  THR9        0.2313
     15  O        -37.8880  110.1870   69.6470 O.2     9  THR9       -0.2863
     16  CB       -35.1340  109.4640   68.4920 C.3     9  THR9        0.1794
     17  OG1      -34.0890  109.9030   67.5800 O.3     9  THR9       -0.2208
     18  CG2      -34.8480  108.0380   69.0000 C.3     9  THR9        0.0378
     19  N        -30.8000  104.4350   74.5990 N.3    17  HIS17      -0.1226
     20  CA       -29.5830  105.1290   74.2350 C.3    17  HIS17       0.1752
     21  C        -28.8860  105.8000   75.4180 C.2    17  HIS17       0.2596
     22  O        -27.6630  105.6220   75.5860 O.2    17  HIS17      -0.2718
     23  CB       -29.8380  106.2310   73.1850 C.3    17  HIS17       0.0759
     24  CG       -28.5590  106.9080   72.7590 C.ar   17  HIS17       0.0818
     25  ND1      -28.0790  108.0810   73.3320 N.ar   17  HIS17      -0.2268
     26  CD2      -27.6660  106.5430   71.7950 C.ar   17  HIS17       0.1154
     27  CE1      -26.9510  108.4230   72.7330 C.ar   17  HIS17       0.1986
     28  NE2      -26.7040  107.5240   71.8060 N.ar   17  HIS17      -0.2212
     29  N        -29.5900  106.5870   76.2370 N.am   18  TRP18      -0.1976
     30  CA       -28.9100  107.2070   77.3900 C.3    18  TRP18       0.1640
     31  C        -28.6310  106.2280   78.5080 C.2    18  TRP18       0.2290
     32  O        -27.7220  106.4340   79.2990 O.2    18  TRP18      -0.2864
     33  CB       -29.6900  108.4580   77.7650 C.3    18  TRP18       0.0576
     34  CG       -29.6300  109.4700   76.6330 C.ar   18  TRP18       0.0006
     35  CD1      -30.7080  110.0380   75.9880 C.ar   18  TRP18       0.0946
     36  CD2      -28.4530  110.0540   76.0340 C.ar   18  TRP18       0.0152
     37  NE1      -30.2770  110.9460   75.0400 N.ar   18  TRP18      -0.2442
     38  CE2      -28.8970  110.9720   75.0430 C.ar   18  TRP18       0.0810
     39  CE3      -27.0690  109.8930   76.2290 C.ar   18  TRP18       0.0012
     40  CZ2      -27.9970  111.7070   74.2470 C.ar   18  TRP18       0.0191
     41  CZ3      -26.1880  110.6480   75.4420 C.ar   18  TRP18       0.0001
     42  CH2      -26.6460  111.5390   74.4570 C.ar   18  TRP18       0.0015
     43  N        -27.4640  103.1480   77.7670 N.3    20  VAL20      -0.1231
     44  CA       -26.2450  102.5810   77.1970 C.3    20  VAL20       0.1692
     45  C        -25.0700  103.5050   77.4730 C.2    20  VAL20       0.2591
     46  O        -24.0080  103.0580   77.9170 O.2    20  VAL20      -0.2718
     47  CB       -26.4140  102.3490   75.6770 C.3    20  VAL20       0.0266
     48  CG1      -25.1610  102.0120   74.8820 C.3    20  VAL20       0.0020
     49  CG2      -27.4680  101.2590   75.4700 C.3    20  VAL20       0.0020
     50  N        -25.2780  104.8000   77.2820 N.am   21  VAL21      -0.1980
     51  CA       -24.2200  105.7910   77.4520 C.3    21  VAL21       0.1595
     52  C        -23.6690  105.8470   78.8790 C.2    21  VAL21       0.2287
     53  O        -22.4540  105.9170   79.1550 O.2    21  VAL21      -0.2864
     54  CB       -24.7150  107.1910   77.0420 C.3    21  VAL21       0.0276
     55  CG1      -23.7710  108.3040   77.4830 C.3    21  VAL21       0.0022
     56  CG2      -24.8910  107.2840   75.5260 C.3    21  VAL21       0.0022
     57  N        -21.8740  102.5610   79.4450 N.3    24  PHE24      -0.1241
     58  CA       -20.6290  102.6050   78.6850 C.3    24  PHE24       0.1605
     59  C        -19.5740  103.4430   79.3810 C.2    24  PHE24       0.2264
     60  O        -18.4070  103.0060   79.4100 O.2    24  PHE24      -0.2867
     61  CB       -20.9040  103.0690   77.2590 C.3    24  PHE24       0.0534
     62  CG       -19.7210  103.0300   76.3340 C.ar   24  PHE24      -0.0203
     63  CD1      -18.8330  104.1110   76.2560 C.ar   24  PHE24      -0.0042
     64  CD2      -19.5020  101.9020   75.5450 C.ar   24  PHE24      -0.0042
     65  CE1      -17.7460  104.0340   75.3960 C.ar   24  PHE24      -0.0003
     66  CE2      -18.4040  101.8240   74.6840 C.ar   24  PHE24      -0.0003
     67  CZ       -17.5270  102.8930   74.6090 C.ar   24  PHE24      -0.0000
     68  N        -24.9720   96.4670   78.6770 N.3    63  ILE63      -0.1245
     69  CA       -24.8100   97.2090   77.4360 C.3    63  ILE63       0.1561
     70  C        -25.1980   96.3320   76.2410 C.2    63  ILE63       0.2260
     71  O        -25.8520   96.8380   75.3180 O.2    63  ILE63      -0.2867
     72  CB       -23.3580   97.7040   77.2800 C.3    63  ILE63       0.0252
     73  CG1      -23.0660   98.7770   78.3240 C.3    63  ILE63       0.0019
     74  CG2      -23.1910   98.2320   75.8510 C.3    63  ILE63       0.0019
     75  CD1      -21.7800   99.5770   78.1740 C.3    63  ILE63       0.0001
     76  N        -27.9840   97.0250   73.5690 N.3    67  LEU67      -0.1245
     77  CA       -27.5840   97.2490   72.1740 C.3    67  LEU67       0.1561
     78  C        -28.3210   96.2800   71.2470 C.2    67  LEU67       0.2260
     79  O        -28.4610   96.5700   70.0500 O.2    67  LEU67      -0.2867
     80  CB       -26.0720   97.1720   71.9160 C.3    67  LEU67       0.0270
     81  CG       -25.2930   98.4380   72.2690 C.3    67  LEU67       0.0019
     82  CD1      -23.8070   98.2260   72.0300 C.3    67  LEU67       0.0001
     83  CD2      -25.7680   99.6380   71.4510 C.3    67  LEU67       0.0001
     84  N        -31.5310   97.9310   70.5640 N.3    70  MET70      -0.1245
     85  CA       -31.2590   98.9580   69.5710 C.3    70  MET70       0.1570
     86  C        -31.0870   98.2680   68.2280 C.2    70  MET70       0.2261
     87  O        -31.6820   98.7240   67.2580 O.2    70  MET70      -0.2867
     88  CB       -30.0400   99.7970   69.9450 C.3    70  MET70       0.0387
     89  CG       -30.4200  100.9730   70.8410 C.3    70  MET70       0.0595
     90  SD       -28.9690  101.7750   71.5320 S.3    70  MET70      -0.1393
     91  CE       -29.3610  103.5010   71.2980 C.3    70  MET70       0.0692
     92  N        -33.1950   99.5820   64.8280 N.3    74  PHE74      -0.1241
     93  CA       -32.5460  100.5080   63.9050 C.3    74  PHE74       0.1605
     94  C        -31.9170   99.7830   62.7150 C.2    74  PHE74       0.2264
     95  O        -31.4720  100.4960   61.7820 O.2    74  PHE74      -0.2867
     96  CB       -31.4450  101.3420   64.6030 C.3    74  PHE74       0.0534
     97  CG       -31.8850  102.2600   65.7020 C.ar   74  PHE74      -0.0203
     98  CD1      -32.4820  101.8240   66.8890 C.ar   74  PHE74      -0.0042
     99  CD2      -31.6490  103.6280   65.5580 C.ar   74  PHE74      -0.0042
    100  CE1      -32.8700  102.7000   67.9000 C.ar   74  PHE74      -0.0003
    101  CE2      -32.0280  104.5150   66.5650 C.ar   74  PHE74      -0.0003
    102  CZ       -32.6420  104.0630   67.7370 C.ar   74  PHE74      -0.0000
    103  N        -30.1840  101.0270   58.6180 N.3    78  ASN78      -0.1240
    104  CA       -28.7190  101.1700   58.5660 C.3    78  ASN78       0.1653
    105  C        -28.1200  100.3200   57.4480 C.2    78  ASN78       0.2266
    106  O        -26.8920  100.2370   57.2120 O.2    78  ASN78      -0.2867
    107  CB       -28.1350  100.8060   59.9500 C.3    78  ASN78       0.1155
    108  CG       -28.3410  102.0030   60.8760 C.2    78  ASN78       0.2627
    109  OD1      -29.3640  102.0070   61.5630 O.2    78  ASN78      -0.2716
    110  ND2      -27.3650  102.8960   60.7670 N.am   78  ASN78      -0.0877
    111  N        -30.2410  107.7770   58.1680 N.3   108  TYR108     -0.1241
    112  CA       -28.9220  107.8480   58.7610 C.3   108  TYR108      0.1605
    113  C        -27.9640  107.8120   57.5650 C.2   108  TYR108      0.2264
    114  O        -28.2410  107.0520   56.6340 O.2   108  TYR108     -0.2867
    115  CB       -28.6380  106.7030   59.7550 C.3   108  TYR108      0.0534
    116  CG       -29.5660  106.8320   60.9690 C.ar  108  TYR108     -0.0201
    117  CD1      -29.4340  107.8630   61.8960 C.ar  108  TYR108     -0.0009
    118  CD2      -30.5900  105.8900   61.0910 C.ar  108  TYR108     -0.0009
    119  CE1      -30.3240  107.9400   62.9500 C.ar  108  TYR108      0.0417
    120  CE2      -31.4880  105.9640   62.1440 C.ar  108  TYR108      0.0417
    121  CZ       -31.3400  106.9970   63.0630 C.ar  108  TYR108      0.1957
    122  OH       -32.2250  107.1200   64.1460 O.3   108  TYR108     -0.2866
    123  N        -22.7270  106.9840   59.5810 N.3   112  GLN112     -0.1245
    124  CA       -23.5330  106.5170   60.6940 C.3   112  GLN112      0.1566
    125  C        -23.8510  105.0260   60.6170 C.2   112  GLN112      0.2260
    126  O        -23.9660  104.3410   61.6470 O.2   112  GLN112     -0.2867
    127  CB       -24.8690  107.2700   60.7350 C.3   112  GLN112      0.0367
    128  CG       -24.7510  108.7110   61.2040 C.3   112  GLN112      0.0905
    129  CD       -26.1160  109.3470   61.4210 C.2   112  GLN112      0.2608
    130  OE1      -26.8450  109.4690   60.4200 O.2   112  GLN112     -0.2717
    131  NE2      -26.5850  109.7770   62.5910 N.am  112  GLN112     -0.0878
    132  N        -20.5380  103.1300   61.4230 N.3   115  MET115     -0.1230
    133  CA       -20.4150  103.1830   62.8740 C.3   115  MET115      0.1702
    134  C        -21.3230  102.1500   63.5500 C.2   115  MET115      0.2592
    135  O        -20.9550  101.3530   64.4280 O.2   115  MET115     -0.2718
    136  CB       -20.8280  104.5930   63.2910 C.3   115  MET115      0.0401
    137  CG       -20.8550  104.8940   64.7750 C.3   115  MET115      0.0596
    138  SD       -19.2400  104.8880   65.6050 S.3   115  MET115     -0.1393
    139  CE       -18.3560  106.0350   64.5300 C.3   115  MET115      0.0692
    140  N        -22.5700  102.1470   63.0780 N.am  116  PHE116     -0.1976
    141  CA       -23.5720  101.2410   63.5960 C.3   116  PHE116      0.1639
    142  C        -23.1060   99.7940   63.5150 C.2   116  PHE116      0.2290
    143  O        -23.2170   99.0460   64.5050 O.2   116  PHE116     -0.2864
    144  CB       -24.8840  101.4900   62.8410 C.3   116  PHE116      0.0560
    145  CG       -25.9380  100.4370   63.0880 C.ar  116  PHE116     -0.0200
    146  CD1      -26.9840  100.6280   64.0030 C.ar  116  PHE116     -0.0042
    147  CD2      -25.8590   99.2090   62.4160 C.ar  116  PHE116     -0.0042
    148  CE1      -27.9200   99.6260   64.2590 C.ar  116  PHE116     -0.0003
    149  CE2      -26.8090   98.2180   62.6670 C.ar  116  PHE116     -0.0003
    150  CZ       -27.8320   98.4150   63.5960 C.ar  116  PHE116     -0.0000
    151  N        -19.9600   99.3700   65.8110 N.3   119  ILE119     -0.1231
    152  CA       -20.4210   99.2770   67.1850 C.3   119  ILE119      0.1692
    153  C        -21.0930   97.9500   67.4690 C.2   119  ILE119      0.2591
    154  O        -20.8970   97.3260   68.5210 O.2   119  ILE119     -0.2718
    155  CB       -21.4320  100.4020   67.4660 C.3   119  ILE119      0.0266
    156  CG1      -20.7090  101.7420   67.5430 C.3   119  ILE119      0.0019
    157  CG2      -22.2840  100.0700   68.6730 C.3   119  ILE119      0.0020
    158  CD1      -21.6390  102.9110   67.8410 C.3   119  ILE119      0.0001
    159  N        -21.9070   97.4450   66.5600 N.am  120  MET120     -0.1979
    160  CA       -22.6550   96.2130   66.7830 C.3   120  MET120      0.1605
    161  C        -21.7640   94.9860   66.6870 C.2   120  MET120      0.2287
    162  O        -21.9890   93.9820   67.3750 O.2   120  MET120     -0.2864
    163  CB       -23.8180   96.1110   65.7800 C.3   120  MET120      0.0413
    164  CG       -24.9040   97.1470   66.0660 C.3   120  MET120      0.0598
    165  SD       -25.8070   96.8350   67.6140 S.3   120  MET120     -0.1393
    166  CE       -26.6620   98.4110   67.8020 C.3   120  MET120      0.0692
    167  N        -13.7720   99.9650   69.9820 N.3   161  LEU161     -0.1245
    168  CA       -15.0620  100.5350   70.3140 C.3   161  LEU161      0.1561
    169  C        -14.9290  101.8710   71.0250 C.2   161  LEU161      0.2260
    170  O        -15.7570  102.7360   70.7250 O.2   161  LEU161     -0.2867
    171  CB       -15.9110   99.4790   71.0390 C.3   161  LEU161      0.0270
    172  CG       -17.2640   99.9580   71.6140 C.3   161  LEU161      0.0019
    173  CD1      -18.1810  100.3750   70.4700 C.3   161  LEU161      0.0001
    174  CD2      -17.9630   98.9470   72.5070 C.3   161  LEU161      0.0001
    175  N        -16.6600  105.3240   69.6410 N.3   165  ILE165     -0.1245
    176  CA       -17.5370  106.1750   70.4240 C.3   165  ILE165      0.1561
    177  C        -16.9980  107.5700   70.6110 C.2   165  ILE165      0.2260
    178  O        -17.7810  108.5050   70.6580 O.2   165  ILE165     -0.2867
    179  CB       -17.8240  105.5910   71.8120 C.3   165  ILE165      0.0252
    180  CG1      -18.5400  104.2630   71.5700 C.3   165  ILE165      0.0019
    181  CG2      -18.6940  106.5430   72.5940 C.3   165  ILE165      0.0019
    182  CD1      -19.8560  104.3810   70.8390 C.3   165  ILE165      0.0001
    183  N        -18.0880  109.0340   67.3280 N.3   168  HIS168     -0.1226
    184  CA       -19.5290  109.1170   67.3800 C.3   168  HIS168      0.1752
    185  C        -19.9780  110.2880   68.2360 C.2   168  HIS168      0.2595
    186  O        -20.9350  110.9640   67.8850 O.2   168  HIS168     -0.2718
    187  CB       -20.0810  107.7760   67.8810 C.3   168  HIS168      0.0759
    188  CG       -21.5680  107.8550   68.1120 C.ar  168  HIS168      0.0818
    189  ND1      -22.4670  107.8260   67.0630 N.ar  168  HIS168     -0.2268
    190  CD2      -22.3220  107.9540   69.2400 C.ar  168  HIS168      0.1154
    191  CE1      -23.7070  107.9000   67.5300 C.ar  168  HIS168      0.1986
    192  NE2      -23.6370  107.9790   68.8400 N.ar  168  HIS168     -0.2212
    193  N        -19.4030  110.5910   69.3910 N.am  169  MET169     -0.1979
    194  CA       -19.8230  111.6830   70.2620 C.3   169  MET169      0.1605
    195  C        -19.3970  112.9920   69.6030 C.2   169  MET169      0.2287
    196  O        -20.1460  113.9470   69.6880 O.2   169  MET169     -0.2864
    197  CB       -19.2390  111.7890   71.6660 C.3   169  MET169      0.0413
    198  CG       -19.4350  110.5500   72.5410 C.3   169  MET169      0.0598
    199  SD       -18.6310  110.9130   74.1270 S.3   169  MET169     -0.1393
    200  CE       -16.9130  111.1080   73.5790 C.3   169  MET169      0.0692
    201  N        -21.8270  113.8190   66.8130 N.3   172  ALA172     -0.1245
    202  CA       -23.0520  114.2850   67.4580 C.3   172  ALA172      0.1562
    203  C        -22.8790  115.6820   68.0290 C.2   172  ALA172      0.2260
    204  O        -23.8560  116.4290   67.9030 O.2   172  ALA172     -0.2867
    205  CB       -23.6100  113.2800   68.4430 C.3   172  ALA172      0.0290
    206  N        -28.2140  117.8780   66.7860 N.3   178  SER178     -0.1202
    207  CA       -28.3400  116.4320   66.9950 C.3   178  SER178      0.2020
    208  C        -28.5390  115.9490   68.4360 C.2   178  SER178      0.2618
    209  O        -29.3580  115.0410   68.5740 O.2   178  SER178     -0.2717
    210  CB       -27.1050  115.6980   66.4380 C.3   178  SER178      0.2103
    211  OG       -26.6720  116.1060   65.1600 O.3   178  SER178     -0.2182
    212  N        -27.8510  116.4470   69.4580 N.am  179  ILE179     -0.1979
    213  CA       -28.0040  115.9580   70.8350 C.3   179  ILE179      0.1595
    214  C        -29.4230  116.1930   71.3420 C.2   179  ILE179      0.2287
    215  O        -30.0000  115.2810   71.9720 O.2   179  ILE179     -0.2864
    216  CB       -26.9200  116.5280   71.7790 C.3   179  ILE179      0.0276
    217  CG1      -25.5560  116.0270   71.2580 C.3   179  ILE179      0.0022
    218  CG2      -27.0430  116.1690   73.2550 C.3   179  ILE179      0.0022
    219  CD1      -24.4110  116.8490   71.8360 C.3   179  ILE179      0.0001
    220  N        -32.2220  116.2560   69.5930 N.3   181  GLY181     -0.1210
    221  CA       -33.0560  115.2190   69.0070 C.3   181  GLY181      0.1956
    222  C        -32.9890  113.9060   69.7860 C.2   181  GLY181      0.2611
    223  O        -34.0290  113.2400   69.8400 O.2   181  GLY181     -0.2717
    224  N        -31.8070  113.5590   70.3350 N.am  182  MET182     -0.1979
    225  CA       -31.6490  112.3070   71.0690 C.3   182  MET182      0.1605
    226  C        -32.1630  112.4570   72.5020 C.2   182  MET182      0.2287
    227  O        -32.5890  111.4370   73.0690 O.2   182  MET182     -0.2864
    228  CB       -30.1930  111.8780   70.8930 C.3   182  MET182      0.0413
    229  CG       -29.9470  110.4260   71.2720 C.3   182  MET182      0.0598
    230  SD       -30.7650  109.2910   70.0900 S.3   182  MET182     -0.1393
    231  CE       -32.0570  108.6170   71.1750 C.3   182  MET182      0.0692
    232  N        -33.0000  121.1170   59.6710 N.3   191  TRP191     -0.1241
    233  CA       -31.9130  120.1950   60.0370 C.3   191  TRP191      0.1605
    234  C        -32.0720  118.9360   59.1570 C.2   191  TRP191      0.2264
    235  O        -31.1050  118.3920   58.5650 O.2   191  TRP191     -0.2867
    236  CB       -32.0500  119.9720   61.5580 C.3   191  TRP191      0.0550
    237  CG       -31.0060  119.1030   62.2120 C.ar  191  TRP191      0.0003
    238  CD1      -29.8580  119.4990   62.8530 C.ar  191  TRP191      0.0946
    239  CD2      -31.0540  117.6660   62.2600 C.ar  191  TRP191      0.0152
    240  NE1      -29.1840  118.3920   63.3030 N.ar  191  TRP191     -0.2442
    241  CE2      -29.8940  117.2520   62.9350 C.ar  191  TRP191      0.0810
    242  CE3      -31.9430  116.6980   61.7820 C.ar  191  TRP191      0.0012
    243  CZ2      -29.6270  115.8930   63.1650 C.ar  191  TRP191      0.0191
    244  CZ3      -31.6740  115.3640   61.9850 C.ar  191  TRP191      0.0001
    245  CH2      -30.5180  114.9710   62.6850 C.ar  191  TRP191      0.0015
    246  N        -30.3550  115.4230   56.3390 N.3   196  HIS196     -0.1241
    247  CA       -30.9840  114.1640   55.8860 C.3   196  HIS196      0.1621
    248  C        -32.1020  114.2910   54.8490 C.2   196  HIS196      0.2264
    249  O        -33.2710  113.8660   55.0610 O.2   196  HIS196     -0.2867
    250  CB       -31.5440  113.4610   57.1590 C.3   196  HIS196      0.0745
    251  CG       -30.4820  112.9130   58.0690 C.ar  196  HIS196      0.0817
    252  ND1      -29.7760  111.7600   57.7850 N.ar  196  HIS196     -0.2268
    253  CD2      -29.9740  113.4560   59.2130 C.ar  196  HIS196      0.1154
    254  CE1      -28.8620  111.5630   58.7400 C.ar  196  HIS196      0.1986
    255  NE2      -28.9750  112.5850   59.6070 N.ar  196  HIS196     -0.2212
@<TRIPOS>BOND
     1   248   249    2
     2   248   247    1
     3   247   246    1
     4   247   250    1
     5   114   113    2
     6   250   251    1
     7   106   105    2
     8   105   104    1
     9   113   112    1
    10   252   251   ar
    11   252   254   ar
    12   251   253   ar
    13   111   112    1
    14   235   234    2
    15   104   103    1
    16   104   107    1
    17   254   255   ar
    18   112   115    1
    19   234   233    1
    20   253   255   ar
    21   123   124    1
    22   232   233    1
    23   115   116    1
    24   107   108    1
    25   233   236    1
    26   130   129    2
    27   125   124    1
    28   125   126    2
    29   124   127    1
    30   127   128    1
    31   110   108   am
    32    10     9    1
    33   108   109    2
    34   116   118   ar
    35   116   117   ar
    36   118   120   ar
    37   128   129    1
    38    11     9    1
    39   129   131   am
    40   132   133    1
    41   236   237    1
    42     9     8    2
    43   242   244   ar
    44   242   239   ar
    45    95    94    2
    46   117   119   ar
    47   244   245   ar
    48   120   121   ar
    49   237   239   ar
    50   237   238   ar
    51   239   241   ar
    52   147   149   ar
    53   147   145   ar
    54   149   150   ar
    55   245   243   ar
    56    94    93    1
    57   144   145    1
    58   144   141    1
    59   238   240   ar
    60   133   136    1
    61   133   134    1
    62     8     7    1
    63   241   243   ar
    64   241   240   ar
    65   119   121   ar
    66   121   122    1
    67   140   134   am
    68   140   141    1
    69   145   146   ar
    70   136   137    1
    71     7     6    1
    72   142   141    1
    73   142   143    2
    74   134   135    2
    75     6     5    1
    76   150   148   ar
    77    93    96    1
    78    93    92    1
    79   146   148   ar
    80   139   138    1
    81    96    97    1
    82     5     2    1
    83   137   138    1
    84     2     1    1
    85     2     3    1
    86     4     3    2
    87   211   210    1
    88    99    97   ar
    89    99   101   ar
    90     3    12   am
    91    97    98   ar
    92   163   164    1
    93   163   160    1
    94   151   152    1
    95   164   165    1
    96   210   207    1
    97   159   160    1
    98   159   153   am
    99   101   102   ar
   100   161   160    1
   101   161   162    2
   102   206   207    1
   103   201   202    1
   104    98   100   ar
   105    12    13    1
   106   207   208    1
   107   189   191   ar
   108   189   188   ar
   109   152   155    1
   110   152   153    1
   111    87    86    2
   112   183   184    1
   113   184   187    1
   114   184   185    1
   115   202   203    1
   116   202   205    1
   117   155   156    1
   118   155   157    1
   119   153   154    2
   120   191   192   ar
   121   156   158    1
   122    17    16    1
   123   165   166    1
   124   102   100   ar
   125    13    16    1
   126    13    14    1
   127   187   188    1
   128   186   185    2
   129   204   203    2
   130   188   190   ar
   131    86    85    1
   132   185   193   am
   133   208   209    2
   134   208   212   am
   135    16    18    1
   136   192   190   ar
   137    14    15    2
   138   221   220    1
   139   221   222    1
   140   193   194    1
   141   212   213    1
   142    85    88    1
   143    85    84    1
   144   195   196    2
   145   195   194    1
   146   175   176    1
   147   222   223    2
   148   222   224   am
   149    88    89    1
   150   167   168    1
   151    79    78    2
   152   230   231    1
   153   230   229    1
   154   194   197    1
   155   168   169    1
   156   168   171    1
   157   224   225    1
   158   176   177    1
   159   176   179    1
   160   173   172    1
   161   177   178    2
   162   170   169    2
   163   213   214    1
   164   213   216    1
   165   182   180    1
   166    89    90    1
   167   228   225    1
   168   228   229    1
   169   171   172    1
   170   225   226    1
   171    78    77    1
   172   217   216    1
   173   217   219    1
   174    91    90    1
   175   214   215    2
   176    83    81    1
   177   180   179    1
   178   172   174    1
   179   197   198    1
   180   216   218    1
   181    26    28   ar
   182    26    24   ar
   183    28    27   ar
   184   179   181    1
   185    80    77    1
   186    80    81    1
   187    82    81    1
   188    77    76    1
   189   226   227    2
   190   198   199    1
   191    27    25   ar
   192    24    23    1
   193    24    25   ar
   194    23    20    1
   195   200   199    1
   196    20    19    1
   197    20    21    1
   198    40    42   ar
   199    40    38   ar
   200    42    41   ar
   201    67    66   ar
   202    67    65   ar
   203    66    64   ar
   204    48    47    1
   205    37    38   ar
   206    37    35   ar
   207    38    36   ar
   208    71    70    2
   209    65    63   ar
   210    21    22    2
   211    21    29   am
   212    41    39   ar
   213    49    47    1
   214    56    54    1
   215    64    62   ar
   216    47    44    1
   217    74    72    1
   218    35    34   ar
   219    36    39   ar
   220    36    34   ar
   221    29    30    1
   222    70    69    1
   223    63    62   ar
   224    62    61    1
   225    34    33    1
   226    54    51    1
   227    54    55    1
   228    44    45    1
   229    44    43    1
   230    61    58    1
   231    72    69    1
   232    72    73    1
   233    50    51    1
   234    50    45   am
   235    30    33    1
   236    30    31    1
   237    69    68    1
   238    51    52    1
   239    45    46    2
   240    75    73    1
   241    31    32    2
   242    58    59    1
   243    58    57    1
   244    52    53    2
   245    59    60    2
