@<TRIPOS>MOLECULE
tmp/1kqgC03.pdb
 134 130 0 0 0
SMALL
GASTEIGER

@<TRIPOS>ATOM
      1  N        -25.2780  104.8000   77.2820 N.3    21  VAL21      -0.1245
      2  CA       -24.2200  105.7910   77.4520 C.3    21  VAL21       0.1561
      3  C        -23.6690  105.8470   78.8790 C.2    21  VAL21       0.2260
      4  O        -22.4540  105.9170   79.1550 O.2    21  VAL21      -0.2867
      5  CB       -24.7150  107.1910   77.0420 C.3    21  VAL21       0.0252
      6  CG1      -23.7710  108.3040   77.4830 C.3    21  VAL21       0.0019
      7  CG2      -24.8910  107.2840   75.5260 C.3    21  VAL21       0.0019
      8  N        -21.8740  102.5610   79.4450 N.3    24  PHE24      -0.1227
      9  CA       -20.6290  102.6050   78.6850 C.3    24  PHE24       0.1736
     10  C        -19.5740  103.4430   79.3810 C.2    24  PHE24       0.2595
     11  O        -18.4070  103.0060   79.4100 O.2    24  PHE24      -0.2718
     12  CB       -20.9040  103.0690   77.2590 C.3    24  PHE24       0.0547
     13  CG       -19.7210  103.0300   76.3340 C.ar   24  PHE24      -0.0202
     14  CD1      -18.8330  104.1110   76.2560 C.ar   24  PHE24      -0.0042
     15  CD2      -19.5020  101.9020   75.5450 C.ar   24  PHE24      -0.0042
     16  CE1      -17.7460  104.0340   75.3960 C.ar   24  PHE24      -0.0003
     17  CE2      -18.4040  101.8240   74.6840 C.ar   24  PHE24      -0.0003
     18  CZ       -17.5270  102.8930   74.6090 C.ar   24  PHE24      -0.0000
     19  N        -19.9190  104.5790   79.9760 N.am   25  PHE25      -0.1976
     20  CA       -18.8940  105.3910   80.6780 C.3    25  PHE25       0.1639
     21  C        -18.1920  104.5610   81.7600 C.2    25  PHE25       0.2290
     22  O        -16.9430  104.5120   81.8050 O.2    25  PHE25      -0.2864
     23  CB       -19.5380  106.6690   81.1810 C.3    25  PHE25       0.0560
     24  CG       -18.8190  107.5130   82.1910 C.ar   25  PHE25      -0.0200
     25  CD1      -18.0850  108.6030   81.7420 C.ar   25  PHE25      -0.0042
     26  CD2      -18.8880  107.2590   83.5750 C.ar   25  PHE25      -0.0042
     27  CE1      -17.4300  109.4210   82.6650 C.ar   25  PHE25      -0.0003
     28  CE2      -18.2420  108.0620   84.5090 C.ar   25  PHE25      -0.0003
     29  CZ       -17.5120  109.1590   84.0450 C.ar   25  PHE25      -0.0000
     30  N        -16.1740  101.4700   79.9970 N.3    28  ALA28      -0.1231
     31  CA       -14.9900  101.9090   79.2500 C.3    28  ALA28       0.1694
     32  C        -13.8810  102.4200   80.1830 C.2    28  ALA28       0.2588
     33  O        -12.6730  102.1320   79.9890 O.2    28  ALA28      -0.2718
     34  CB       -15.4430  102.9900   78.2740 C.3    28  ALA28       0.0304
     35  N        -14.3120  103.2150   81.1800 N.am   29  LEU29      -0.2033
     36  CA       -13.3340  103.7380   82.1400 C.3    29  LEU29       0.1282
     37  C        -12.7080  102.6340   82.9960 C.3    29  LEU29       0.2036
     38  O        -11.4630  102.7000   83.0840 O.3    29  LEU29      -0.2185
     39  CB       -13.9870  104.8320   82.9760 C.3    29  LEU29       0.0244
     40  CG       -14.2730  106.1330   82.2050 C.3    29  LEU29       0.0018
     41  CD1      -14.8400  107.1740   83.1590 C.3    29  LEU29       0.0001
     42  CD2      -13.0660  106.7270   81.5050 C.3    29  LEU29       0.0001
     43  N        -10.3540  100.8020   80.7210 N.3    32  ILE32      -0.1245
     44  CA        -9.1440  101.5750   80.4540 C.3    32  ILE32       0.1561
     45  C         -8.2150  101.5020   81.6600 C.2    32  ILE32       0.2260
     46  O         -7.0040  101.4170   81.4490 O.2    32  ILE32      -0.2867
     47  CB        -9.4750  103.0320   80.1180 C.3    32  ILE32       0.0252
     48  CG1      -10.0250  103.2620   78.7030 C.3    32  ILE32       0.0019
     49  CG2       -8.2360  103.9420   80.2590 C.3    32  ILE32       0.0019
     50  CD1       -9.0060  103.0720   77.5600 C.3    32  ILE32       0.0001
     51  N         -6.2080   98.4170   81.2610 N.3    35  PHE35      -0.1227
     52  CA        -5.3650   98.5430   80.0550 C.3    35  PHE35       0.1736
     53  C         -4.1600   99.4650   80.2130 C.2    35  PHE35       0.2595
     54  O         -3.0800   99.1670   79.7280 O.2    35  PHE35      -0.2718
     55  CB        -6.2500   99.0980   78.9200 C.3    35  PHE35       0.0547
     56  CG        -5.6390   99.0320   77.5350 C.ar   35  PHE35      -0.0202
     57  CD1       -4.9100  100.0870   76.9870 C.ar   35  PHE35      -0.0042
     58  CD2       -5.8100   97.8800   76.7720 C.ar   35  PHE35      -0.0042
     59  CE1       -4.3550   99.9890   75.7230 C.ar   35  PHE35      -0.0003
     60  CE2       -5.2690   97.7780   75.5040 C.ar   35  PHE35      -0.0003
     61  CZ        -4.5410   98.8330   74.9870 C.ar   35  PHE35      -0.0000
     62  N         -4.3300  100.6010   80.8670 N.am   36  PHE36      -0.1963
     63  CA        -3.3270  101.5770   81.2350 C.3    36  PHE36       0.1756
     64  C         -3.2840  101.7700   82.7630 C.2    36  PHE36       0.2461
     65  O         -3.8160  102.7090   83.3690 O.2    36  PHE36      -0.2730
     66  CB        -3.6130  102.9450   80.6090 C.3    36  PHE36       0.0574
     67  CG        -3.5640  103.0990   79.1160 C.ar   36  PHE36      -0.0200
     68  CD1       -2.5470  102.5270   78.3560 C.ar   36  PHE36      -0.0042
     69  CD2       -4.5470  103.8260   78.4540 C.ar   36  PHE36      -0.0042
     70  CE1       -2.4620  102.6480   76.9720 C.ar   36  PHE36      -0.0003
     71  CE2       -4.4790  103.9340   77.0880 C.ar   36  PHE36      -0.0003
     72  CZ        -3.4600  103.3610   76.3370 C.ar   36  PHE36      -0.0000
     73  N         -2.5750  100.8910   83.4810 N.am   37  PRO37      -0.2716
     74  CA        -2.5060  100.9360   84.9420 C.3    37  PRO37       0.1536
     75  C         -1.8810  102.2100   85.4730 C.2    37  PRO37       0.2599
     76  O         -2.1280  102.5410   86.6500 O.2    37  PRO37      -0.2715
     77  CB        -1.7650   99.6730   85.3160 C.3    37  PRO37       0.0310
     78  CG        -1.8760   98.7840   84.1120 C.3    37  PRO37       0.0237
     79  CD        -1.8420   99.7080   82.9280 C.3    37  PRO37       0.0939
     80  N         -1.1320  102.9570   84.6250 N.am   38  THR38      -0.1937
     81  CA        -0.5340  104.2070   85.0560 C.3    38  THR38       0.2028
     82  C         -1.6400  105.2080   85.3440 C.2    38  THR38       0.2642
     83  O         -1.5380  106.0710   86.2240 O.2    38  THR38      -0.2714
     84  CB         0.4570  104.7840   84.0330 C.3    38  THR38       0.1808
     85  OG1        1.4390  103.8000   83.6790 O.3    38  THR38      -0.2208
     86  CG2        1.0920  106.1040   84.4850 C.3    38  THR38       0.0379
     87  N         -2.8090  105.1050   84.7240 N.am   39  LEU39      -0.1977
     88  CA        -3.9270  106.0260   85.0220 C.3    39  LEU39       0.1596
     89  C         -4.6730  105.5500   86.2570 C.2    39  LEU39       0.2287
     90  O         -5.7520  104.9950   86.1990 O.2    39  LEU39      -0.2864
     91  CB        -4.8450  106.0910   83.7990 C.3    39  LEU39       0.0297
     92  CG        -4.1060  106.3280   82.4600 C.3    39  LEU39       0.0022
     93  CD1       -5.0130  106.0770   81.2600 C.3    39  LEU39       0.0001
     94  CD2       -3.4910  107.7200   82.4090 C.3    39  LEU39       0.0001
     95  N         -8.5620  106.0300   87.3820 N.3    42  LEU42      -0.1245
     96  CA        -9.6090  105.2070   86.8140 C.3    42  LEU42       0.1561
     97  C         -9.8030  103.9100   87.5330 C.2    42  LEU42       0.2260
     98  O        -10.8250  103.2610   87.3310 O.2    42  LEU42      -0.2867
     99  CB        -9.3610  104.9920   85.3160 C.3    42  LEU42       0.0270
    100  CG        -9.1230  106.2730   84.5100 C.3    42  LEU42       0.0019
    101  CD1       -8.9940  105.8670   83.0430 C.3    42  LEU42       0.0001
    102  CD2      -10.2660  107.2510   84.6830 C.3    42  LEU42       0.0001
    103  N        -13.9900  102.1250   71.9360 N.3   162  ILE162     -0.1245
    104  CA       -13.8270  103.3960   72.6230 C.3   162  ILE162      0.1561
    105  C        -13.4900  104.4600   71.5920 C.2   162  ILE162      0.2260
    106  O        -14.0810  105.5430   71.5590 O.2   162  ILE162     -0.2867
    107  CB       -12.7610  103.2720   73.7350 C.3   162  ILE162      0.0252
    108  CG1      -13.3590  102.3430   74.7990 C.3   162  ILE162      0.0019
    109  CG2      -12.4020  104.6540   74.2410 C.3   162  ILE162      0.0019
    110  CD1      -12.6440  102.0420   76.1030 C.3   162  ILE162      0.0001
    111  N        -16.6600  105.3240   69.6410 N.3   165  ILE165     -0.1231
    112  CA       -17.5370  106.1750   70.4240 C.3   165  ILE165      0.1692
    113  C        -16.9980  107.5700   70.6110 C.2   165  ILE165      0.2591
    114  O        -17.7810  108.5050   70.6580 O.2   165  ILE165     -0.2718
    115  CB       -17.8240  105.5910   71.8120 C.3   165  ILE165      0.0266
    116  CG1      -18.5400  104.2630   71.5700 C.3   165  ILE165      0.0019
    117  CG2      -18.6940  106.5430   72.5940 C.3   165  ILE165      0.0020
    118  CD1      -19.8560  104.3810   70.8390 C.3   165  ILE165      0.0001
    119  N        -15.6870  107.7570   70.6970 N.am  166  LEU166     -0.1980
    120  CA       -15.1340  109.1020   70.7530 C.3   166  LEU166      0.1596
    121  C        -15.5480  109.8400   69.4740 C.2   166  LEU166      0.2287
    122  O        -16.0370  110.9570   69.5530 O.2   166  LEU166     -0.2864
    123  CB       -13.6060  109.0970   70.8280 C.3   166  LEU166      0.0297
    124  CG       -13.0010  108.5830   72.1580 C.3   166  LEU166      0.0022
    125  CD1      -11.4800  108.4400   72.0090 C.3   166  LEU166      0.0001
    126  CD2      -13.5260  109.4630   73.3000 C.3   166  LEU166      0.0001
    127  N        -19.4030  110.5910   69.3910 N.3   169  MET169     -0.1245
    128  CA       -19.8230  111.6830   70.2620 C.3   169  MET169      0.1570
    129  C        -19.3970  112.9920   69.6030 C.2   169  MET169      0.2261
    130  O        -20.1460  113.9470   69.6880 O.2   169  MET169     -0.2867
    131  CB       -19.2390  111.7890   71.6660 C.3   169  MET169      0.0387
    132  CG       -19.4350  110.5500   72.5410 C.3   169  MET169      0.0595
    133  SD       -18.6310  110.9130   74.1270 S.3   169  MET169     -0.1393
    134  CE       -16.9130  111.1080   73.5790 C.3   169  MET169      0.0692
@<TRIPOS>BOND
     1   127   128    1
     2   121   122    2
     3   121   120    1
     4   129   130    2
     5   129   128    1
     6   111   112    1
     7   128   131    1
     8   112   113    1
     9   112   115    1
    10   113   114    2
    11   113   119   am
    12   119   120    1
    13   120   123    1
    14   123   124    1
    15   118   116    1
    16   106   105    2
    17   116   115    1
    18   105   104    1
    19   131   132    1
    20   115   117    1
    21   103   104    1
    22   125   124    1
    23   124   126    1
    24   132   133    1
    25   104   107    1
    26   134   133    1
    27   107   109    1
    28   107   108    1
    29    18    17   ar
    30    18    16   ar
    31    17    15   ar
    32   108   110    1
    33    61    60   ar
    34    61    59   ar
    35    16    14   ar
    36    60    58   ar
    37     7     5    1
    38    15    13   ar
    39    59    57   ar
    40    14    13   ar
    41    13    12    1
    42    72    70   ar
    43    72    71   ar
    44    58    56   ar
    45    70    68   ar
    46    57    56   ar
    47     5     2    1
    48     5     6    1
    49    71    69   ar
    50    12     9    1
    51     1     2    1
    52     2     3    1
    53    56    55    1
    54    50    48    1
    55    34    31    1
    56    68    67   ar
    57    69    67   ar
    58     9    10    1
    59     9     8    1
    60    48    47    1
    61     3     4    2
    62    55    52    1
    63    67    66    1
    64    31    30    1
    65    31    32    1
    66    10    11    2
    67    10    19   am
    68    54    53    2
    69    19    20    1
    70    33    32    2
    71    52    53    1
    72    52    51    1
    73    47    49    1
    74    47    44    1
    75    32    35   am
    76    53    62   am
    77    44    43    1
    78    44    45    1
    79    66    63    1
    80    20    23    1
    81    20    21    1
    82    62    63    1
    83    35    36    1
    84    23    24    1
    85    63    64    1
    86    93    92    1
    87    46    45    2
    88    42    40    1
    89    25    24   ar
    90    25    27   ar
    91    21    22    2
    92    36    39    1
    93    36    37    1
    94    24    26   ar
    95    40    39    1
    96    40    41    1
    97    94    92    1
    98    92    91    1
    99    27    29   ar
   100    64    65    2
   101    64    73   am
   102    79    73    1
   103    79    78    1
   104    37    38    1
   105   101   100    1
   106    73    74    1
   107    26    28   ar
   108    85    84    1
   109    91    88    1
   110    84    86    1
   111    84    81    1
   112    29    28   ar
   113    78    77    1
   114   100   102    1
   115   100    99    1
   116    80    81    1
   117    80    75   am
   118    87    88    1
   119    87    82   am
   120    74    77    1
   121    74    75    1
   122    88    89    1
   123    81    82    1
   124    99    96    1
   125    82    83    2
   126    75    76    2
   127    90    89    2
   128    96    95    1
   129    96    97    1
   130    98    97    2
