@<TRIPOS>MOLECULE
tmp/1kqgC02.pdb
 158 153 0 0 0
SMALL
GASTEIGER

@<TRIPOS>ATOM
      1  N        -21.4830  109.1770   49.1720 N.3    87  TRP87      -0.1241
      2  CA       -20.9650  109.5730   50.4810 C.3    87  TRP87       0.1605
      3  C        -19.4880  109.1770   50.6820 C.2    87  TRP87       0.2264
      4  O        -18.5680  110.0020   50.8490 O.2    87  TRP87      -0.2867
      5  CB       -21.8220  108.8130   51.5230 C.3    87  TRP87       0.0550
      6  CG       -21.7680  109.6210   52.7930 C.ar   87  TRP87       0.0003
      7  CD1      -22.6950  110.5810   53.1010 C.ar   87  TRP87       0.0946
      8  CD2      -20.8050  109.5870   53.8610 C.ar   87  TRP87       0.0152
      9  NE1      -22.3820  111.1490   54.3190 N.ar   87  TRP87      -0.2442
     10  CE2      -21.2360  110.5530   54.7990 C.ar   87  TRP87       0.0810
     11  CE3      -19.6590  108.8220   54.1380 C.ar   87  TRP87       0.0012
     12  CZ2      -20.5400  110.7880   55.9970 C.ar   87  TRP87       0.0191
     13  CZ3      -18.9700  109.0600   55.3230 C.ar   87  TRP87       0.0001
     14  CH2      -19.4070  110.0410   56.2350 C.ar   87  TRP87       0.0015
     15  N        -15.7810  111.9580   51.1150 N.3    91  ILE91      -0.1245
     16  CA       -15.6500  112.0000   52.5800 C.3    91  ILE91       0.1561
     17  C        -14.9890  113.3180   53.0020 C.2    91  ILE91       0.2260
     18  O        -15.4430  114.0000   53.9330 O.2    91  ILE91      -0.2867
     19  CB       -14.7570  110.8590   53.0900 C.3    91  ILE91       0.0252
     20  CG1      -15.3420  109.5120   52.6850 C.3    91  ILE91       0.0019
     21  CG2      -14.7340  111.0260   54.6180 C.3    91  ILE91       0.0019
     22  CD1      -14.2650  108.4100   52.7160 C.3    91  ILE91       0.0001
     23  N        -16.6010  116.1480   55.4960 N.3    95  LEU95      -0.1245
     24  CA       -15.9530  116.5830   56.7350 C.3    95  LEU95       0.1561
     25  C        -15.7620  118.0900   56.8250 C.2    95  LEU95       0.2260
     26  O        -15.7010  118.7090   57.9190 O.2    95  LEU95      -0.2867
     27  CB       -14.6160  115.8510   56.9250 C.3    95  LEU95       0.0270
     28  CG       -14.8170  114.3160   56.9930 C.3    95  LEU95       0.0019
     29  CD1      -13.4210  113.6900   56.9960 C.3    95  LEU95       0.0001
     30  CD2      -15.7660  113.8730   58.1030 C.3    95  LEU95       0.0001
     31  N        -21.7820  118.0270   53.0420 N.3    99  GLU99      -0.1245
     32  CA       -22.2050  116.7010   52.5570 C.3    99  GLU99       0.1567
     33  C        -23.4280  116.7830   51.6280 C.2    99  GLU99       0.2260
     34  O        -23.5510  116.0330   50.6290 O.2    99  GLU99      -0.2867
     35  CB       -22.5450  115.6500   53.6240 C.3    99  GLU99       0.0388
     36  CG       -23.9130  115.8960   54.2690 C.3    99  GLU99       0.1160
     37  CD       -24.2290  114.9550   55.4280 C.2    99  GLU99       0.3649
     38  OE1      -23.6350  113.8400   55.4920 O.co2  99  GLU99      -0.2457
     39  OE2      -25.0940  115.4450   56.2250 O.co2  99  GLU99      -0.2457
     40  N        -26.9110  108.6180   57.5650 N.3   109  ASN109     -0.1240
     41  CA       -25.9580  108.5750   56.4470 C.3   109  ASN109      0.1653
     42  C        -25.0970  107.3110   56.4550 C.2   109  ASN109      0.2266
     43  O        -25.1640  106.4400   57.3340 O.2   109  ASN109     -0.2867
     44  CB       -25.1220  109.8600   56.4450 C.3   109  ASN109      0.1155
     45  CG       -24.1720  110.0170   57.6300 C.2   109  ASN109      0.2627
     46  OD1      -23.2760  109.1670   57.8320 O.2   109  ASN109     -0.2716
     47  ND2      -24.4260  111.1080   58.3560 N.am  109  ASN109     -0.0877
     48  N        -21.8030  107.2260   56.9720 N.3   111  GLY111     -0.1210
     49  CA       -20.8420  107.1750   58.0700 C.3   111  GLY111      0.1956
     50  C        -21.5400  106.4870   59.2580 C.2   111  GLY111      0.2611
     51  O        -20.9930  105.5840   59.8800 O.2   111  GLY111     -0.2717
     52  N        -22.7270  106.9840   59.5810 N.am  112  GLN112     -0.1979
     53  CA       -23.5330  106.5170   60.6940 C.3   112  GLN112      0.1601
     54  C        -23.8510  105.0260   60.6170 C.2   112  GLN112      0.2287
     55  O        -23.9660  104.3410   61.6470 O.2   112  GLN112     -0.2864
     56  CB       -24.8690  107.2700   60.7350 C.3   112  GLN112      0.0394
     57  CG       -24.7510  108.7110   61.2040 C.3   112  GLN112      0.0908
     58  CD       -26.1160  109.3470   61.4210 C.2   112  GLN112      0.2608
     59  OE1      -26.8450  109.4690   60.4200 O.2   112  GLN112     -0.2717
     60  NE2      -26.5850  109.7770   62.5910 N.am  112  GLN112     -0.0878
     61  N        -21.8150  102.9300   59.0110 N.3   114  MET114     -0.1230
     62  CA       -20.5410  102.2130   59.1960 C.3   114  MET114      0.1702
     63  C        -20.2640  102.0430   60.6960 C.2   114  MET114      0.2592
     64  O        -19.9190  100.9810   61.2450 O.2   114  MET114     -0.2718
     65  CB       -19.4040  102.9550   58.5030 C.3   114  MET114      0.0401
     66  CG       -19.4910  102.7520   56.9910 C.3   114  MET114      0.0596
     67  SD       -18.0510  103.3420   56.0790 S.3   114  MET114     -0.1393
     68  CE       -18.0510  105.0800   56.5490 C.3   114  MET114      0.0692
     69  N        -20.5380  103.1300   61.4230 N.am  115  MET115     -0.1979
     70  CA       -20.4150  103.1830   62.8740 C.3   115  MET115      0.1605
     71  C        -21.3230  102.1500   63.5500 C.2   115  MET115      0.2287
     72  O        -20.9550  101.3530   64.4280 O.2   115  MET115     -0.2864
     73  CB       -20.8280  104.5930   63.2910 C.3   115  MET115      0.0413
     74  CG       -20.8550  104.8940   64.7750 C.3   115  MET115      0.0598
     75  SD       -19.2400  104.8880   65.6050 S.3   115  MET115     -0.1393
     76  CE       -18.3560  106.0350   64.5300 C.3   115  MET115      0.0692
     77  N        -15.3560  109.2430   68.3020 N.3   167  ILE167     -0.1231
     78  CA       -15.7750  109.8170   67.0180 C.3   167  ILE167      0.1692
     79  C        -17.2850  109.9870   66.8920 C.2   167  ILE167      0.2592
     80  O        -17.8110  110.9920   66.4320 O.2   167  ILE167     -0.2718
     81  CB       -15.2660  108.9090   65.8640 C.3   167  ILE167      0.0266
     82  CG1      -13.7330  109.0660   65.7180 C.3   167  ILE167      0.0019
     83  CG2      -16.0080  109.2900   64.5860 C.3   167  ILE167      0.0020
     84  CD1      -12.9560  107.9450   65.0500 C.3   167  ILE167      0.0001
     85  N        -18.0880  109.0340   67.3280 N.am  168  HIS168     -0.1976
     86  CA       -19.5290  109.1170   67.3800 C.3   168  HIS168      0.1656
     87  C        -19.9780  110.2880   68.2360 C.2   168  HIS168      0.2291
     88  O        -20.9350  110.9640   67.8850 O.2   168  HIS168     -0.2864
     89  CB       -20.0810  107.7760   67.8810 C.3   168  HIS168      0.0771
     90  CG       -21.5680  107.8550   68.1120 C.ar  168  HIS168      0.0820
     91  ND1      -22.4670  107.8260   67.0630 N.ar  168  HIS168     -0.2267
     92  CD2      -22.3220  107.9540   69.2400 C.ar  168  HIS168      0.1154
     93  CE1      -23.7070  107.9000   67.5300 C.ar  168  HIS168      0.1986
     94  NE2      -23.6370  107.9790   68.8400 N.ar  168  HIS168     -0.2212
     95  N        -18.9560  113.6710   66.3340 N.3   171  MET171     -0.1230
     96  CA       -19.9200  113.9550   65.2600 C.3   171  MET171      0.1702
     97  C        -21.2400  114.4750   65.8130 C.2   171  MET171      0.2592
     98  O        -21.7240  115.5340   65.4140 O.2   171  MET171     -0.2718
     99  CB       -20.2190  112.7440   64.3720 C.3   171  MET171      0.0401
    100  CG       -18.9990  112.3090   63.5640 C.3   171  MET171      0.0596
    101  SD       -18.2520  113.7540   62.7290 S.3   171  MET171     -0.1393
    102  CE       -17.9710  112.9620   61.0920 C.3   171  MET171      0.0692
    103  N        -21.8270  113.8190   66.8130 N.am  172  ALA172     -0.1980
    104  CA       -23.0520  114.2850   67.4580 C.3   172  ALA172      0.1597
    105  C        -22.8790  115.6820   68.0290 C.2   172  ALA172      0.2287
    106  O        -23.8560  116.4290   67.9030 O.2   172  ALA172     -0.2864
    107  CB       -23.6100  113.2800   68.4430 C.3   172  ALA172      0.0319
    108  N        -20.7270  117.9550   66.8200 N.3   174  TRP174     -0.1227
    109  CA       -20.4170  118.7270   65.6180 C.3   174  TRP174      0.1737
    110  C        -21.5920  119.0540   64.6840 C.2   174  TRP174      0.2595
    111  O        -21.7710  120.2190   64.2750 O.2   174  TRP174     -0.2718
    112  CB       -19.4000  117.8880   64.8220 C.3   174  TRP174      0.0564
    113  CG       -19.0030  118.6030   63.5620 C.ar  174  TRP174      0.0003
    114  CD1      -18.4590  119.8520   63.4840 C.ar  174  TRP174      0.0946
    115  CD2      -19.0940  118.0990   62.2210 C.ar  174  TRP174      0.0152
    116  NE1      -18.1770  120.1490   62.1590 N.ar  174  TRP174     -0.2442
    117  CE2      -18.5610  119.0950   61.3680 C.ar  174  TRP174      0.0810
    118  CE3      -19.5490  116.8950   61.6690 C.ar  174  TRP174      0.0012
    119  CZ2      -18.4890  118.9490   59.9830 C.ar  174  TRP174      0.0191
    120  CZ3      -19.4780  116.7370   60.2890 C.ar  174  TRP174      0.0001
    121  CH2      -18.9550  117.7640   59.4820 C.ar  174  TRP174      0.0015
    122  N        -22.4140  118.0450   64.3490 N.am  175  VAL175     -0.1980
    123  CA       -23.6020  118.2980   63.5170 C.3   175  VAL175      0.1595
    124  C        -24.6890  118.7880   64.4820 C.2   175  VAL175      0.2287
    125  O        -25.5210  118.0530   65.0200 O.2   175  VAL175     -0.2864
    126  CB       -23.9940  117.0700   62.7070 C.3   175  VAL175      0.0276
    127  CG1      -25.3350  117.1430   62.0210 C.3   175  VAL175      0.0022
    128  CG2      -22.8870  116.8860   61.6480 C.3   175  VAL175      0.0022
    129  N        -28.2140  117.8780   66.7860 N.3   178  SER178     -0.1217
    130  CA       -28.3400  116.4320   66.9950 C.3   178  SER178      0.1889
    131  C        -28.5390  115.9490   68.4360 C.2   178  SER178      0.2288
    132  O        -29.3580  115.0410   68.5740 O.2   178  SER178     -0.2866
    133  CB       -27.1050  115.6980   66.4380 C.3   178  SER178      0.2089
    134  OG       -26.6720  116.1060   65.1600 O.3   178  SER178     -0.2183
    135  N        -33.0000  121.1170   59.6710 N.3   191  TRP191     -0.1241
    136  CA       -31.9130  120.1950   60.0370 C.3   191  TRP191      0.1605
    137  C        -32.0720  118.9360   59.1570 C.2   191  TRP191      0.2264
    138  O        -31.1050  118.3920   58.5650 O.2   191  TRP191     -0.2867
    139  CB       -32.0500  119.9720   61.5580 C.3   191  TRP191      0.0550
    140  CG       -31.0060  119.1030   62.2120 C.ar  191  TRP191      0.0003
    141  CD1      -29.8580  119.4990   62.8530 C.ar  191  TRP191      0.0946
    142  CD2      -31.0540  117.6660   62.2600 C.ar  191  TRP191      0.0152
    143  NE1      -29.1840  118.3920   63.3030 N.ar  191  TRP191     -0.2442
    144  CE2      -29.8940  117.2520   62.9350 C.ar  191  TRP191      0.0810
    145  CE3      -31.9430  116.6980   61.7820 C.ar  191  TRP191      0.0012
    146  CZ2      -29.6270  115.8930   63.1650 C.ar  191  TRP191      0.0191
    147  CZ3      -31.6740  115.3640   61.9850 C.ar  191  TRP191      0.0001
    148  CH2      -30.5180  114.9710   62.6850 C.ar  191  TRP191      0.0015
    149  N        -30.3550  115.4230   56.3390 N.3   196  HIS196     -0.1241
    150  CA       -30.9840  114.1640   55.8860 C.3   196  HIS196      0.1621
    151  C        -32.1020  114.2910   54.8490 C.2   196  HIS196      0.2264
    152  O        -33.2710  113.8660   55.0610 O.2   196  HIS196     -0.2867
    153  CB       -31.5440  113.4610   57.1590 C.3   196  HIS196      0.0745
    154  CG       -30.4820  112.9130   58.0690 C.ar  196  HIS196      0.0817
    155  ND1      -29.7760  111.7600   57.7850 N.ar  196  HIS196     -0.2268
    156  CD2      -29.9740  113.4560   59.2130 C.ar  196  HIS196      0.1154
    157  CE1      -28.8620  111.5630   58.7400 C.ar  196  HIS196      0.1986
    158  NE2      -28.9750  112.5850   59.6070 N.ar  196  HIS196     -0.2212
@<TRIPOS>BOND
     1     1     2    1
     2     2     3    1
     3     2     5    1
     4    34    33    2
     5     3     4    2
     6    15    16    1
     7     5     6    1
     8    33    32    1
     9    32    31    1
    10    32    35    1
    11    16    17    1
    12    16    19    1
    13    20    22    1
    14    20    19    1
    15     6     7   ar
    16     6     8   ar
    17    17    18    2
    18    19    21    1
    19     7     9   ar
    20    35    36    1
    21     8    11   ar
    22     8    10   ar
    23    11    13   ar
    24    36    37    1
    25     9    10   ar
    26    10    12   ar
    27   151   152    2
    28   151   150    1
    29    13    14   ar
    30    37    38   ar
    31    37    39   ar
    32    23    24    1
    33   150   149    1
    34   150   153    1
    35    12    14   ar
    36    67    68    1
    37    67    66    1
    38    44    41    1
    39    44    45    1
    40    41    42    1
    41    41    40    1
    42    42    43    2
    43    24    25    1
    44    24    27    1
    45    25    26    2
    46    27    28    1
    47    48    49    1
    48    66    65    1
    49    28    29    1
    50    28    30    1
    51   153   154    1
    52    45    46    2
    53    45    47   am
    54   155   154   ar
    55   155   157   ar
    56   154   156   ar
    57    49    50    1
    58    65    62    1
    59   138   137    2
    60   157   158   ar
    61    61    62    1
    62   137   136    1
    63    62    63    1
    64   156   158   ar
    65    50    52   am
    66    50    51    2
    67   121   119   ar
    68   121   120   ar
    69    52    53    1
    70   135   136    1
    71   119   117   ar
    72   136   139    1
    73   120   118   ar
    74    59    58    2
    75    54    53    1
    76    54    55    2
    77    53    56    1
    78    63    64    2
    79    63    69   am
    80    56    57    1
    81   102   101    1
    82    57    58    1
    83   117   116   ar
    84   117   115   ar
    85    58    60   am
    86    69    70    1
    87   139   140    1
    88   128   126    1
    89   118   115   ar
    90   145   147   ar
    91   145   142   ar
    92   147   148   ar
    93   127   126    1
    94   116   114   ar
    95   140   142   ar
    96   140   141   ar
    97   115   113   ar
    98   142   144   ar
    99   148   146   ar
   100   126   123    1
   101   101   100    1
   102   141   143   ar
   103    70    73    1
   104    70    71    1
   105   144   146   ar
   106   144   143   ar
   107    73    74    1
   108   114   113   ar
   109   123   122    1
   110   123   124    1
   111    71    72    2
   112   113   112    1
   113   100    99    1
   114   111   110    2
   115   122   110   am
   116    99    96    1
   117   124   125    2
   118    76    75    1
   119    83    81    1
   120   110   109    1
   121    74    75    1
   122   112   109    1
   123    84    82    1
   124   134   133    1
   125    96    97    1
   126    96    95    1
   127    98    97    2
   128   109   108    1
   129    82    81    1
   130    97   103   am
   131    81    78    1
   132    80    79    2
   133   133   130    1
   134   129   130    1
   135   103   104    1
   136    79    78    1
   137    79    85   am
   138   130   131    1
   139    78    77    1
   140    91    93   ar
   141    91    90   ar
   142    85    86    1
   143    86    89    1
   144    86    87    1
   145   104   105    1
   146   104   107    1
   147    93    94   ar
   148    89    90    1
   149    88    87    2
   150   106   105    2
   151    90    92   ar
   152   131   132    2
   153    94    92   ar
