@<TRIPOS>MOLECULE
tmp/1kqmA00.pdb
 201 196 0 0 0
SMALL
GASTEIGER

@<TRIPOS>ATOM
      1  N         15.7600  -22.3000   13.9920 N.3   102  ILE102     -0.1231
      2  CA        15.1860  -21.0770   14.5180 C.3   102  ILE102      0.1692
      3  C         16.0150  -19.9510   13.9650 C.2   102  ILE102      0.2592
      4  O         15.5590  -18.8190   13.7770 O.2   102  ILE102     -0.2718
      5  CB        15.2410  -21.0640   16.0490 C.3   102  ILE102      0.0266
      6  CG1       14.4230  -22.2230   16.6110 C.3   102  ILE102      0.0019
      7  CG2       14.6780  -19.7670   16.5680 C.3   102  ILE102      0.0020
      8  CD1       14.9250  -23.6010   16.2570 C.3   102  ILE102      0.0001
      9  N         17.2500  -20.3170   13.6830 N.am  103  TYR103     -0.1976
     10  CA        18.1940  -19.3880   13.1810 C.3   103  TYR103      0.1639
     11  C         18.2200  -19.3500   11.6720 C.2   103  TYR103      0.2290
     12  O         18.1930  -20.3750   11.0000 O.2   103  TYR103     -0.2864
     13  CB        19.5610  -19.7540   13.7400 C.3   103  TYR103      0.0560
     14  CG        19.7190  -19.4390   15.2120 C.ar  103  TYR103     -0.0198
     15  CD1       20.0620  -18.1490   15.6210 C.ar  103  TYR103     -0.0009
     16  CD2       19.5590  -20.4250   16.1960 C.ar  103  TYR103     -0.0009
     17  CE1       20.2590  -17.8400   16.9540 C.ar  103  TYR103      0.0417
     18  CE2       19.7540  -20.1200   17.5560 C.ar  103  TYR103      0.0417
     19  CZ        20.1140  -18.8170   17.9230 C.ar  103  TYR103      0.1957
     20  OH        20.3870  -18.4840   19.2330 O.3   103  TYR103     -0.2866
     21  N         11.7940  -17.1120   18.2600 N.3   114  ASN114     -0.1226
     22  CA        11.6730  -17.8310   19.5720 C.3   114  ASN114      0.1770
     23  C         10.8460  -19.1470   19.6940 C.2   114  ASN114      0.2439
     24  O          9.6230  -19.1420   19.5430 O.2   114  ASN114     -0.2733
     25  CB        11.1840  -16.8330   20.6260 C.3   114  ASN114      0.1168
     26  CG        10.8130  -17.4890   21.9570 C.2   114  ASN114      0.2627
     27  OD1       10.5750  -18.6690   22.0340 O.2   114  ASN114     -0.2716
     28  ND2       10.7330  -16.7060   22.9880 N.am  114  ASN114     -0.0877
     29  N         11.5200  -20.2810   19.9990 N.am  115  PRO115     -0.2718
     30  CA        10.9420  -21.6210   20.1600 C.3   115  PRO115      0.1535
     31  C         10.6750  -21.7400   21.6290 C.2   115  PRO115      0.2599
     32  O         11.6110  -21.7440   22.4120 O.2   115  PRO115     -0.2715
     33  CB        12.0800  -22.5210   19.7050 C.3   115  PRO115      0.0310
     34  CG        13.2730  -21.8100   20.2450 C.3   115  PRO115      0.0237
     35  CD        12.9920  -20.3500   19.9640 C.3   115  PRO115      0.0939
     36  N          9.4360  -21.8330   22.0440 N.am  116  TYR116     -0.1960
     37  CA         9.1680  -21.8480   23.4640 C.3   116  TYR116      0.1771
     38  C          9.5690  -23.0470   24.3220 C.2   116  TYR116      0.2619
     39  O          9.2990  -23.0920   25.5270 O.2   116  TYR116     -0.2715
     40  CB         7.7140  -21.4340   23.6260 C.3   116  TYR116      0.0574
     41  CG         7.6210  -19.9390   23.5350 C.ar  116  TYR116     -0.0198
     42  CD1        6.4750  -19.2930   23.0820 C.ar  116  TYR116     -0.0009
     43  CD2        8.6430  -19.1610   24.0740 C.ar  116  TYR116     -0.0009
     44  CE1        6.3490  -17.9080   23.2080 C.ar  116  TYR116      0.0417
     45  CE2        8.5240  -17.8160   24.1960 C.ar  116  TYR116      0.0417
     46  CZ         7.3820  -17.1970   23.7930 C.ar  116  TYR116      0.1957
     47  OH         7.2710  -15.9000   24.1760 O.3   116  TYR116     -0.2866
     48  N         10.2310  -24.0140   23.6870 N.am  117  ARG117     -0.1963
     49  CA        10.7060  -25.1700   24.4270 C.3   117  ARG117      0.1729
     50  C         12.2420  -25.1630   24.4350 C.2   117  ARG117      0.2616
     51  O         12.8570  -24.3560   23.7400 O.2   117  ARG117     -0.2715
     52  CB        10.2000  -26.4320   23.7750 C.3   117  ARG117      0.0348
     53  CG        10.6890  -26.5830   22.3760 C.3   117  ARG117      0.0492
     54  CD        10.1820  -27.8540   21.8160 C.3   117  ARG117      0.2205
     55  NE        10.8290  -28.1330   20.5480 N.pl3 117  ARG117     -0.0865
     56  CZ        10.5930  -29.2380   19.8080 C.cat 117  ARG117      0.5346
     57  NH1        9.7090  -30.2100   20.1890 N.pl3 117  ARG117      0.1354
     58  NH2       11.2530  -29.3950   18.6590 N.pl3 117  ARG117      0.1354
     59  N         12.8640  -26.0530   25.2210 N.am  118  ARG118     -0.1963
     60  CA        14.3190  -26.1510   25.3180 C.3   118  ARG118      0.1729
     61  C         14.8290  -26.8700   24.1000 C.2   118  ARG118      0.2616
     62  O         14.0640  -27.5450   23.4120 O.2   118  ARG118     -0.2715
     63  CB        14.7420  -26.8970   26.5840 C.3   118  ARG118      0.0348
     64  CG        14.9480  -25.9850   27.7910 C.3   118  ARG118      0.0492
     65  CD        16.0910  -24.9930   27.5530 C.3   118  ARG118      0.2205
     66  NE        15.9950  -23.8210   28.4340 N.pl3 118  ARG118     -0.0865
     67  CZ        16.8750  -22.8230   28.4610 C.cat 118  ARG118      0.5346
     68  NH1       17.9350  -22.8740   27.6380 N.pl3 118  ARG118      0.1354
     69  NH2       16.6820  -21.7790   29.2920 N.pl3 118  ARG118      0.1354
     70  N         16.1200  -26.7120   23.8080 N.am  119  LEU119     -0.1977
     71  CA        16.7030  -27.3440   22.6080 C.3   119  LEU119      0.1596
     72  C         18.1940  -27.7560   22.6750 C.2   119  LEU119      0.2287
     73  O         19.0420  -27.0260   23.1970 O.2   119  LEU119     -0.2864
     74  CB        16.4660  -26.4470   21.3920 C.3   119  LEU119      0.0297
     75  CG        15.0180  -26.2110   20.9670 C.3   119  LEU119      0.0022
     76  CD1       14.9860  -25.1860   19.8530 C.3   119  LEU119      0.0001
     77  CD2       14.3880  -27.5200   20.5150 C.3   119  LEU119      0.0001
     78  N         22.7840  -26.6180   22.0520 N.3   122  TYR122     -0.1241
     79  CA        23.8980  -25.9490   22.7510 C.3   122  TYR122      0.1605
     80  C         25.1310  -26.6980   23.3000 C.2   122  TYR122      0.2264
     81  O         26.0610  -26.0760   23.8170 O.2   122  TYR122     -0.2867
     82  CB        23.2880  -25.0400   23.8270 C.3   122  TYR122      0.0534
     83  CG        22.1580  -24.1970   23.2490 C.ar  122  TYR122     -0.0201
     84  CD1       22.2870  -23.6100   21.9880 C.ar  122  TYR122     -0.0009
     85  CD2       20.9520  -24.0410   23.9290 C.ar  122  TYR122     -0.0009
     86  CE1       21.2440  -22.8970   21.4170 C.ar  122  TYR122      0.0417
     87  CE2       19.8960  -23.3250   23.3570 C.ar  122  TYR122      0.0417
     88  CZ        20.0490  -22.7600   22.0970 C.ar  122  TYR122      0.1957
     89  OH        18.9890  -22.1120   21.4900 O.3   122  TYR122     -0.2866
     90  N         11.1380   -7.8110   19.7400 N.3   167  GLU167     -0.1231
     91  CA        10.0920   -7.3320   20.6620 C.3   167  GLU167      0.1699
     92  C         10.2730   -7.8930   22.1010 C.2   167  GLU167      0.2593
     93  O         11.3650   -8.3700   22.4480 O.2   167  GLU167     -0.2718
     94  CB         8.7040   -7.7220   20.1390 C.3   167  GLU167      0.0402
     95  CG         8.3420   -7.0940   18.8110 C.3   167  GLU167      0.1161
     96  CD         6.8410   -7.0640   18.5460 C.2   167  GLU167      0.3649
     97  OE1        6.4480   -6.5670   17.4720 O.co2 167  GLU167     -0.2457
     98  OE2        6.0550   -7.5240   19.4050 O.co2 167  GLU167     -0.2457
     99  N          9.2100   -7.8370   22.9320 N.am  168  SER168     -0.1938
    100  CA         9.2730   -8.3730   24.3000 C.3   168  SER168      0.2055
    101  C          8.9290   -9.8650   24.3180 C.2   168  SER168      0.2644
    102  O          7.9110  -10.2820   23.7700 O.2   168  SER168     -0.2714
    103  CB         8.3180   -7.6080   25.2080 C.3   168  SER168      0.2130
    104  OG         8.3950   -8.1100   26.5140 O.3   168  SER168     -0.2179
    105  N          9.7820  -10.6520   24.9590 N.am  169  GLY169     -0.1939
    106  CA         9.4880  -12.0900   24.9660 C.3   169  GLY169      0.2014
    107  C          9.8670  -12.7360   23.6380 C.2   169  GLY169      0.2639
    108  O          9.4670  -13.8550   23.2450 O.2   169  GLY169     -0.2714
    109  N         10.6990  -11.9370   22.9660 N.am  170  ALA170     -0.1963
    110  CA        11.2790  -12.2700   21.6810 C.3   170  ALA170      0.1728
    111  C         12.4640  -13.2230   21.8810 C.2   170  ALA170      0.2617
    112  O         12.5070  -14.2940   21.2570 O.2   170  ALA170     -0.2715
    113  CB        11.7150  -11.0140   20.9630 C.3   170  ALA170      0.0334
    114  N         13.4270  -12.8590   22.7170 N.am  171  GLY171     -0.1940
    115  CA        14.5180  -13.7770   22.9650 C.3   171  GLY171      0.2014
    116  C         15.7570  -12.9770   23.1710 C.2   171  GLY171      0.2639
    117  O         16.8710  -13.5340   23.3030 O.2   171  GLY171     -0.2714
    118  N         15.5870  -11.6460   23.2240 N.am  172  LYS172     -0.1963
    119  CA        16.8370  -10.9010   23.3660 C.3   172  LYS172      0.1728
    120  C         17.7030  -11.4320   24.5500 C.2   172  LYS172      0.2617
    121  O         18.8630  -11.8890   24.4300 O.2   172  LYS172     -0.2715
    122  CB        16.5260   -9.4150   23.5950 C.3   172  LYS172      0.0311
    123  CG        15.6160   -8.7900   22.5700 C.3   172  LYS172      0.0038
    124  CD        15.1810   -7.3720   22.9610 C.3   172  LYS172      0.0206
    125  CE        13.9900   -7.3370   23.9030 C.3   172  LYS172      0.1093
    126  NZ        14.3200   -7.6670   25.3020 N.3   172  LYS172     -0.1314
    127  N         17.0120  -11.3670   25.6940 N.am  173  THR173     -0.1937
    128  CA        17.6100  -11.6840   26.9450 C.3   173  THR173      0.2028
    129  C         18.0120  -13.1240   26.9590 C.2   173  THR173      0.2642
    130  O         19.0390  -13.4480   27.5110 O.2   173  THR173     -0.2714
    131  CB        16.6290  -11.3240   28.0670 C.3   173  THR173      0.1808
    132  OG1       16.2410   -9.9510   27.9200 O.3   173  THR173     -0.2208
    133  CG2       17.2390  -11.5870   29.4260 C.3   173  THR173      0.0379
    134  N         17.2310  -13.9950   26.3490 N.am  174  GLU174     -0.1963
    135  CA        17.6440  -15.4140   26.3470 C.3   174  GLU174      0.1733
    136  C         18.8470  -15.8390   25.4800 C.2   174  GLU174      0.2616
    137  O         19.3760  -16.9400   25.6470 O.2   174  GLU174     -0.2715
    138  CB        16.4460  -16.3050   25.9880 C.3   174  GLU174      0.0429
    139  CG        15.7560  -16.9210   27.2060 C.3   174  GLU174      0.1163
    140  CD        16.7150  -17.7460   28.0730 C.2   174  GLU174      0.3649
    141  OE1       16.3180  -18.1140   29.2110 O.co2 174  GLU174     -0.2457
    142  OE2       17.8520  -18.0170   27.6010 O.co2 174  GLU174     -0.2457
    143  N         19.2820  -14.9600   24.5730 N.am  175  ASN175     -0.1972
    144  CA        20.4260  -15.2650   23.7030 C.3   175  ASN175      0.1688
    145  C         21.6450  -14.5570   24.2040 C.2   175  ASN175      0.2292
    146  O         22.7320  -15.1230   24.2400 O.2   175  ASN175     -0.2864
    147  CB        20.1330  -14.8450   22.2910 C.3   175  ASN175      0.1181
    148  CG        19.1240  -15.7260   21.6550 C.2   175  ASN175      0.2629
    149  OD1       19.4690  -16.7140   21.0230 O.2   175  ASN175     -0.2716
    150  ND2       17.8580  -15.4090   21.8560 N.am  175  ASN175     -0.0877
    151  N         23.0640  -17.1160   26.2270 N.3   178  LYS178     -0.1245
    152  CA        23.6160  -18.2040   25.4230 C.3   178  LYS178      0.1561
    153  C         24.8990  -17.7790   24.7500 C.2   178  LYS178      0.2260
    154  O         25.7580  -18.6090   24.4470 O.2   178  LYS178     -0.2867
    155  CB        22.6020  -18.6530   24.3750 C.3   178  LYS178      0.0271
    156  CG        21.4860  -19.4930   24.9560 C.3   178  LYS178      0.0035
    157  CD        22.0550  -20.7520   25.5830 C.3   178  LYS178      0.0206
    158  CE        21.1000  -21.3580   26.5890 C.3   178  LYS178      0.1093
    159  NZ        19.7520  -21.6160   26.0210 N.3   178  LYS178     -0.1314
    160  N          5.5900  -11.7870   28.8520 N.3   215  ASN215     -0.1240
    161  CA         6.6100  -12.7680   29.1840 C.3   215  ASN215      0.1653
    162  C          6.9120  -12.7620   30.6810 C.2   215  ASN215      0.2266
    163  O          7.1690  -11.7070   31.2750 O.2   215  ASN215     -0.2867
    164  CB         7.8900  -12.4760   28.3970 C.3   215  ASN215      0.1155
    165  CG         8.9390  -13.5450   28.5630 C.2   215  ASN215      0.2627
    166  OD1        8.6210  -14.7040   28.8310 O.2   215  ASN215     -0.2716
    167  ND2       10.1800  -13.1620   28.3850 N.am  215  ASN215     -0.0877
    168  N          9.3790  -13.3510   32.2290 N.3   217  ASN217     -0.1225
    169  CA        10.7420  -12.9720   32.5930 C.3   217  ASN217      0.1785
    170  C         11.2430  -11.6700   31.9550 C.2   217  ASN217      0.2598
    171  O         12.4470  -11.4820   31.7900 O.2   217  ASN217     -0.2718
    172  CB        11.6840  -14.1300   32.2590 C.3   217  ASN217      0.1169
    173  CG        12.9680  -14.0650   33.0600 C.2   217  ASN217      0.2627
    174  OD1       13.2110  -13.1240   33.8290 O.2   217  ASN217     -0.2716
    175  ND2       13.8130  -15.0790   32.8850 N.am  217  ASN217     -0.0877
    176  N         10.3280  -10.7720   31.5860 N.am  218  SER218     -0.1938
    177  CA        10.7310   -9.4960   31.0230 C.3   218  SER218      0.2055
    178  C         11.7790   -8.6720   31.8340 C.2   218  SER218      0.2643
    179  O         11.5980   -8.4580   33.0270 O.2   218  SER218     -0.2714
    180  CB         9.4880   -8.6430   30.8440 C.3   218  SER218      0.2130
    181  OG         9.8680   -7.3950   30.3200 O.3   218  SER218     -0.2179
    182  N         12.8530   -8.2320   31.2030 N.am  219  SER219     -0.1949
    183  CA        13.8400   -7.4450   31.8610 C.3   219  SER219      0.1924
    184  C         13.1100   -6.1830   32.3290 C.2   219  SER219      0.2314
    185  O         11.8990   -6.0840   32.2190 O.2   219  SER219     -0.2863
    186  CB        14.9680   -7.1580   30.8800 C.3   219  SER219      0.2116
    187  OG        15.1990   -8.3410   30.1210 O.3   219  SER219     -0.2180
    188  N         16.1030   -2.5960   25.4810 N.3   432  ALA432     -0.1245
    189  CA        14.6880   -2.4890   25.2900 C.3   432  ALA432      0.1562
    190  C         13.9950   -2.7240   23.9850 C.2   432  ALA432      0.2260
    191  O         13.4220   -3.7910   23.7710 O.2   432  ALA432     -0.2867
    192  CB        14.2040   -1.1720   25.8770 C.3   432  ALA432      0.0290
    193  N          8.2600    0.7740   22.0290 N.3   435  GLU435     -0.1245
    194  CA         6.9850    0.2800   22.5060 C.3   435  GLU435      0.1567
    195  C          5.9130    1.3330   22.4750 C.2   435  GLU435      0.2260
    196  O          6.1070    2.4640   22.9480 O.2   435  GLU435     -0.2867
    197  CB         7.1400   -0.2810   23.9120 C.3   435  GLU435      0.0388
    198  CG         7.7270   -1.6960   23.8530 C.3   435  GLU435      0.1160
    199  CD         8.4080   -2.1590   25.1580 C.2   435  GLU435      0.3649
    200  OE1        8.3530   -1.4720   26.2090 O.co2 435  GLU435     -0.2457
    201  OE2        9.0010   -3.2460   25.1420 O.co2 435  GLU435     -0.2457
@<TRIPOS>BOND
     1    12    11    2
     2    11    10    1
     3    10     9    1
     4    10    13    1
     5     9     3   am
     6    13    14    1
     7     4     3    2
     8     3     2    1
     9     1     2    1
    10     2     5    1
    11    14    15   ar
    12    14    16   ar
    13    15    17   ar
    14     5     7    1
    15     5     6    1
    16    16    18   ar
    17     8     6    1
    18    17    19   ar
    19    97    96   ar
    20    18    19   ar
    21    19    20    1
    22    21    22    1
    23    96    95    1
    24    96    98   ar
    25    58    56    1
    26    95    94    1
    27    24    23    2
    28    22    23    1
    29    22    25    1
    30    23    29   am
    31    33    30    1
    32    33    34    1
    33    90    91    1
    34    56    57    1
    35    56    55    2
    36    76    75    1
    37    35    29    1
    38    35    34    1
    39    29    30    1
    40    94    91    1
    41    30    31    1
    42    77    75    1
    43    55    54    1
    44    25    26    1
    45    91    92    1
    46   113   110    1
    47    75    74    1
    48   149   148    2
    49   112   111    2
    50    74    71    1
    51    86    84   ar
    52    86    88   ar
    53    89    88    1
    54    31    36   am
    55    31    32    2
    56   148   150   am
    57   148   147    1
    58   110   111    1
    59   110   109    1
    60    54    53    1
    61   111   114   am
    62    26    27    2
    63    26    28   am
    64    84    83   ar
    65   193   194    1
    66    36    37    1
    67    78    79    1
    68    88    87   ar
    69    92    93    2
    70    92    99   am
    71   147   144    1
    72    53    52    1
    73   195   194    1
    74   195   196    2
    75   194   197    1
    76   123   124    1
    77   123   122    1
    78    71    72    1
    79    71    70    1
    80    72    73    2
    81   114   115    1
    82    79    80    1
    83    79    82    1
    84    99   100    1
    85   124   125    1
    86   115   116    1
    87   109   107   am
    88    42    44   ar
    89    42    41   ar
    90   116   118   am
    91   116   117    2
    92    44    46   ar
    93   118   119    1
    94   108   107    2
    95    83    82    1
    96    83    85   ar
    97    80    81    2
    98    87    85   ar
    99   119   122    1
   100   119   120    1
   101    62    61    2
   102    37    40    1
   103    37    38    1
   104    41    40    1
   105    41    43   ar
   106   107   106    1
   107    48    38   am
   108    48    49    1
   109   144   145    1
   110   144   143    1
   111    51    50    2
   112   102   101    2
   113   191   190    2
   114    52    49    1
   115    46    47    1
   116    46    45   ar
   117    70    61   am
   118   198   197    1
   119   198   199    1
   120   125   126    1
   121   190   189    1
   122    43    45   ar
   123    61    60    1
   124   145   146    2
   125   100   101    1
   126   100   103    1
   127   101   105   am
   128    38    39    2
   129   155   156    1
   130   155   152    1
   131    49    50    1
   132   121   120    2
   133    50    59   am
   134   154   153    2
   135   120   127   am
   136   143   136   am
   137   153   152    1
   138   156   157    1
   139   105   106    1
   140   201   199   ar
   141   199   200   ar
   142   103   104    1
   143    59    60    1
   144   189   188    1
   145   189   192    1
   146    60    63    1
   147   152   151    1
   148   136   137    2
   149   136   135    1
   150   157   158    1
   151   127   128    1
   152   138   135    1
   153   138   139    1
   154   159   158    1
   155   135   134    1
   156   134   129   am
   157    63    64    1
   158   128   129    1
   159   128   131    1
   160   129   130    2
   161   139   140    1
   162    65    64    1
   163    65    66    1
   164   142   140   ar
   165    68    67    1
   166   132   131    1
   167   131   133    1
   168   140   141   ar
   169   167   165   am
   170   164   165    1
   171   164   161    1
   172    66    67    2
   173    67    69    1
   174   165   166    2
   175   160   161    1
   176   161   162    1
   177   187   186    1
   178   181   180    1
   179   162   163    2
   180   180   177    1
   181   186   183    1
   182   177   176    1
   183   177   178    1
   184   182   178   am
   185   182   183    1
   186   176   170   am
   187   171   170    2
   188   178   179    2
   189   183   184    1
   190   170   169    1
   191   185   184    2
   192   168   169    1
   193   172   169    1
   194   172   173    1
   195   175   173   am
   196   173   174    2
