@<TRIPOS>MOLECULE
tmp/1kqwA00.pdb
 220 205 0 0 0
SMALL
GASTEIGER

@<TRIPOS>ATOM
      1  N         14.4460   65.9960    6.0690 N.3    16  PHE16      -0.1241
      2  CA        13.7240   64.7980    5.6490 C.3    16  PHE16       0.1605
      3  C         12.2510   65.0890    5.4580 C.2    16  PHE16       0.2264
      4  O         11.6170   64.6080    4.4940 O.2    16  PHE16      -0.2867
      5  CB        13.9150   63.7470    6.7400 C.3    16  PHE16       0.0534
      6  CG        13.5420   62.3280    6.3830 C.ar   16  PHE16      -0.0203
      7  CD1       13.7380   61.8260    5.1110 C.ar   16  PHE16      -0.0042
      8  CD2       12.9980   61.4910    7.3530 C.ar   16  PHE16      -0.0042
      9  CE1       13.4240   60.5160    4.7950 C.ar   16  PHE16      -0.0003
     10  CE2       12.6730   60.1800    7.0350 C.ar   16  PHE16      -0.0003
     11  CZ        12.8800   59.6800    5.7560 C.ar   16  PHE16      -0.0000
     12  N         11.3600   66.5550    2.1180 N.3    19  VAL19      -0.1231
     13  CA        11.3090   65.6100    0.9880 C.3    19  VAL19       0.1692
     14  C         10.1020   64.7080    1.1210 C.2    19  VAL19       0.2591
     15  O          9.4380   64.4240    0.1180 O.2    19  VAL19      -0.2718
     16  CB        12.6210   64.8150    0.8860 C.3    19  VAL19       0.0266
     17  CG1       12.5490   63.6810   -0.1230 C.3    19  VAL19       0.0020
     18  CG2       13.7440   65.7570    0.4760 C.3    19  VAL19       0.0020
     19  N          9.8070   64.2600    2.3470 N.am   20  MET20      -0.1979
     20  CA         8.6260   63.4100    2.4890 C.3    20  MET20       0.1605
     21  C          7.3700   64.1570    2.0640 C.2    20  MET20       0.2287
     22  O          6.5250   63.5590    1.4140 O.2    20  MET20      -0.2864
     23  CB         8.4630   62.9060    3.9240 C.3    20  MET20       0.0413
     24  CG         9.5080   61.8510    4.3010 C.3    20  MET20       0.0598
     25  SD         9.1980   61.1100    5.9160 S.3    20  MET20      -0.1393
     26  CE         9.5590   62.4870    7.0160 C.3    20  MET20       0.0692
     27  N          6.9660   64.1440   -1.5390 N.3    23  LEU23      -0.1245
     28  CA         6.5020   62.8420   -1.9990 C.3    23  LEU23       0.1561
     29  C          5.0440   62.5390   -1.6230 C.2    23  LEU23       0.2260
     30  O          4.5390   61.4410   -1.9110 O.2    23  LEU23      -0.2867
     31  CB         7.4140   61.7280   -1.4380 C.3    23  LEU23       0.0270
     32  CG         8.8550   61.8240   -1.9630 C.3    23  LEU23       0.0019
     33  CD1        9.7930   60.9180   -1.1850 C.3    23  LEU23       0.0001
     34  CD2        8.8850   61.4800   -3.4640 C.3    23  LEU23       0.0001
     35  N          3.8770   62.0660    1.2710 N.3    25  ILE25      -0.1245
     36  CA         3.7130   61.2430    2.4760 C.3    25  ILE25       0.1561
     37  C          2.9530   62.0440    3.5180 C.2    25  ILE25       0.2260
     38  O          3.2830   63.2040    3.8150 O.2    25  ILE25      -0.2867
     39  CB         5.0980   60.7660    2.9490 C.3    25  ILE25       0.0252
     40  CG1        5.7600   59.9200    1.8550 C.3    25  ILE25       0.0019
     41  CG2        4.9900   60.0700    4.2940 C.3    25  ILE25       0.0019
     42  CD1        7.1520   59.3800    2.0890 C.3    25  ILE25       0.0001
     43  N          2.4850   60.1580    9.1340 N.3    29  THR29      -0.1218
     44  CA         3.6080   59.2810    8.7960 C.3    29  THR29       0.1862
     45  C          4.9320   60.0420    8.8590 C.2    29  THR29       0.2287
     46  O          5.9260   59.4730    9.3130 O.2    29  THR29      -0.2866
     47  CB         3.3920   58.6800    7.4010 C.3    29  THR29       0.1770
     48  OG1        2.1900   57.8880    7.3660 O.3    29  THR29      -0.2211
     49  CG2        4.5340   57.7510    7.0150 C.3    29  THR29       0.0375
     50  N          8.2450   59.0050   11.0760 N.3    33  ALA33      -0.1245
     51  CA         9.4890   58.7160   10.3750 C.3    33  ALA33       0.1562
     52  C         10.6220   59.6650   10.7500 C.2    33  ALA33       0.2260
     53  O         11.7710   59.2090   10.8820 O.2    33  ALA33      -0.2867
     54  CB         9.2480   58.7440    8.8560 C.3    33  ALA33       0.0290
     55  N         12.9370   58.6590   13.6100 N.3    36  LEU36      -0.1245
     56  CA        13.5450   57.3300   13.7560 C.3    36  LEU36       0.1561
     57  C         15.0060   57.3440   13.3050 C.2    36  LEU36       0.2260
     58  O         15.3150   57.9380   12.2830 O.2    36  LEU36      -0.2867
     59  CB        12.8420   56.2440   12.9820 C.3    36  LEU36       0.0270
     60  CG        11.4180   56.1540   12.5060 C.3    36  LEU36       0.0019
     61  CD1       11.3290   55.8350   11.0070 C.3    36  LEU36       0.0001
     62  CD2       10.6470   55.0770   13.2520 C.3    36  LEU36       0.0001
     63  N         18.0690   55.4880   11.4440 N.3    38  GLN38      -0.1245
     64  CA        18.1260   54.5730   10.3210 C.3    38  GLN38       0.1566
     65  C         19.4980   53.9030   10.2870 C.2    38  GLN38       0.2260
     66  O         20.4720   54.5080   10.7380 O.2    38  GLN38      -0.2867
     67  CB        17.8780   55.2910    8.9890 C.3    38  GLN38       0.0367
     68  CG        16.5480   56.0600    8.9420 C.3    38  GLN38       0.0905
     69  CD        16.3350   56.7610    7.6140 C.2    38  GLN38       0.2608
     70  OE1       16.9450   56.3990    6.5990 O.2    38  GLN38      -0.2717
     71  NE2       15.4690   57.7670    7.5950 N.am   38  GLN38      -0.0878
     72  N         22.0410   51.9250    7.3430 N.3    40  LYS40      -0.1245
     73  CA        22.1860   51.5210    5.9440 C.3    40  LYS40       0.1561
     74  C         23.1440   50.3220    5.9090 C.2    40  LYS40       0.2260
     75  O         24.2460   50.3900    6.4680 O.2    40  LYS40      -0.2867
     76  CB        22.7280   52.6270    5.0460 C.3    40  LYS40       0.0271
     77  CG        21.8330   53.2530    4.0220 C.3    40  LYS40       0.0035
     78  CD        20.6910   54.0560    4.6010 C.3    40  LYS40       0.0206
     79  CE        20.1760   55.1150    3.6540 C.3    40  LYS40       0.1093
     80  NZ        18.9060   54.7270    2.9750 N.3    40  LYS40      -0.1314
     81  N         21.5210   47.0890   -1.2180 N.3    51  THR51      -0.1218
     82  CA        21.3610   48.0000   -0.0880 C.3    51  THR51       0.1862
     83  C         20.0300   47.8170    0.6390 C.2    51  THR51       0.2287
     84  O         18.9890   47.5250    0.0680 O.2    51  THR51      -0.2866
     85  CB        21.4580   49.4680   -0.5400 C.3    51  THR51       0.1770
     86  OG1       20.2060   49.8910   -1.1380 O.3    51  THR51      -0.2211
     87  CG2       22.5400   49.6450   -1.5810 C.3    51  THR51       0.0375
     88  N         17.8600   49.7470    4.0150 N.3    53  THR53      -0.1218
     89  CA        17.6390   50.8850    4.8940 C.3    53  THR53       0.1862
     90  C         16.7190   50.4400    6.0220 C.2    53  THR53       0.2287
     91  O         15.5800   50.0780    5.7200 O.2    53  THR53      -0.2866
     92  CB        17.0450   52.0780    4.1270 C.3    53  THR53       0.1770
     93  OG1       17.9790   52.4160    3.0940 O.3    53  THR53      -0.2211
     94  CG2       16.9110   53.2910    5.0280 C.3    53  THR53       0.0375
     95  N         14.8930   50.5910    9.9470 N.3    55  SER55      -0.1217
     96  CA        14.3780   51.3940   11.0410 C.3    55  SER55       0.1889
     97  C         13.3630   50.5690   11.8220 C.2    55  SER55       0.2288
     98  O         12.9460   49.5320   11.3030 O.2    55  SER55      -0.2866
     99  CB        13.7140   52.6980   10.5930 C.3    55  SER55       0.2089
    100  OG        12.3920   52.4760   10.1250 O.3    55  SER55      -0.2183
    101  N         10.3690   51.3030   12.3520 N.3    57  PHE57      -0.1227
    102  CA         9.0750   51.4950   11.7080 C.3    57  PHE57       0.1736
    103  C          8.8720   50.6720   10.4400 C.2    57  PHE57       0.2595
    104  O          8.0460   49.7370   10.4160 O.2    57  PHE57      -0.2718
    105  CB         8.9760   52.9810   11.3380 C.3    57  PHE57       0.0547
    106  CG         7.6350   53.3810   10.7530 C.ar   57  PHE57      -0.0202
    107  CD1        6.4720   52.8770   11.3220 C.ar   57  PHE57      -0.0042
    108  CD2        7.5830   54.2450    9.6740 C.ar   57  PHE57      -0.0042
    109  CE1        5.2560   53.2600   10.8020 C.ar   57  PHE57      -0.0003
    110  CE2        6.3600   54.6180    9.1520 C.ar   57  PHE57      -0.0003
    111  CZ         5.1990   54.1220    9.7210 C.ar   57  PHE57      -0.0000
    112  N          9.6150   51.0450    9.4010 N.am   58  ARG58      -0.1966
    113  CA         9.6530   50.3290    8.1340 C.3    58  ARG58       0.1729
    114  C         11.0880   50.1210    7.6520 C.2    58  ARG58       0.2616
    115  O         11.9900   50.8990    8.0040 O.2    58  ARG58      -0.2715
    116  CB         8.8710   51.1070    7.0690 C.3    58  ARG58       0.0348
    117  CG         7.3750   51.1620    7.2000 C.3    58  ARG58       0.0492
    118  CD         6.7180   52.1440    6.2340 C.3    58  ARG58       0.2205
    119  NE         5.2960   52.3120    6.6090 N.pl3  58  ARG58      -0.0865
    120  CZ         4.5130   53.3020    6.1890 C.cat  58  ARG58       0.5346
    121  NH1        5.0310   54.2140    5.3690 N.pl3  58  ARG58       0.1354
    122  NH2        3.2350   53.3900    6.5730 N.pl3  58  ARG58       0.1354
    123  N         11.3120   49.0950    6.8300 N.am   59  ASN59      -0.1958
    124  CA        12.5890   48.8090    6.1910 C.3    59  ASN59       0.1819
    125  C         12.4880   48.9640    4.6830 C.2    59  ASN59       0.2621
    126  O         11.3930   48.7670    4.1330 O.2    59  ASN59      -0.2715
    127  CB        13.0220   47.3690    6.5070 C.3    59  ASN59       0.1195
    128  CG        13.1770   47.1360    7.9970 C.2    59  ASN59       0.2630
    129  OD1       13.8290   47.9180    8.6860 O.2    59  ASN59      -0.2716
    130  ND2       12.5910   46.0560    8.5140 N.am   59  ASN59      -0.0877
    131  N         13.5860   49.2790    4.0060 N.am   60  TYR60      -0.1974
    132  CA        13.5440   49.4560    2.5610 C.3    60  TYR60       0.1639
    133  C         14.7570   48.8550    1.8620 C.2    60  TYR60       0.2290
    134  O         15.8970   49.0320    2.2790 O.2    60  TYR60      -0.2864
    135  CB        13.4350   50.9490    2.2350 C.3    60  TYR60       0.0560
    136  CG        13.1620   51.1650    0.7650 C.ar   60  TYR60      -0.0198
    137  CD1       11.9480   50.7660    0.2000 C.ar   60  TYR60      -0.0009
    138  CD2       14.1080   51.7510   -0.0600 C.ar   60  TYR60      -0.0009
    139  CE1       11.6670   50.9500   -1.1450 C.ar   60  TYR60       0.0417
    140  CE2       13.8340   51.9370   -1.4020 C.ar   60  TYR60       0.0417
    141  CZ        12.6310   51.5400   -1.9410 C.ar   60  TYR60       0.1957
    142  OH        12.3760   51.7300   -3.2840 O.3    60  TYR60      -0.2866
    143  N         16.8830   48.2460   -1.8020 N.3    62  VAL62      -0.1245
    144  CA        17.0310   48.5480   -3.2430 C.3    62  VAL62       0.1561
    145  C         18.3850   48.0130   -3.6780 C.2    62  VAL62       0.2260
    146  O         19.4350   48.2530   -3.0750 O.2    62  VAL62      -0.2867
    147  CB        16.7940   50.0410   -3.5230 C.3    62  VAL62       0.0252
    148  CG1       17.6020   50.9240   -2.5980 C.3    62  VAL62       0.0019
    149  CG2       17.0870   50.4130   -4.9860 C.3    62  VAL62       0.0019
    150  N         20.9070   47.2730   -7.1900 N.3    64  PHE64      -0.1241
    151  CA        21.1330   47.7920   -8.5290 C.3    64  PHE64       0.1605
    152  C         22.5440   47.5360   -9.0420 C.2    64  PHE64       0.2264
    153  O         23.4850   47.3310   -8.2650 O.2    64  PHE64      -0.2867
    154  CB        20.8740   49.3130   -8.5780 C.3    64  PHE64       0.0534
    155  CG        21.7590   50.1430   -7.6600 C.ar   64  PHE64      -0.0203
    156  CD1       23.0020   50.6230   -8.0380 C.ar   64  PHE64      -0.0042
    157  CD2       21.3400   50.4530   -6.3640 C.ar   64  PHE64      -0.0042
    158  CE1       23.8000   51.3550   -7.1890 C.ar   64  PHE64      -0.0003
    159  CE2       22.1140   51.2000   -5.5140 C.ar   64  PHE64      -0.0003
    160  CZ        23.3520   51.6520   -5.9120 C.ar   64  PHE64      -0.0000
    161  N          6.4190   51.2600    1.0460 N.3    76  GLY76      -0.1210
    162  CA         6.6820   51.7370    2.3840 C.3    76  GLY76       0.1956
    163  C          7.1020   53.1990    2.4600 C.2    76  GLY76       0.2611
    164  O          7.2240   53.7590    3.5610 O.2    76  GLY76      -0.2717
    165  N          7.3230   53.8090    1.2970 N.am   77  LEU77      -0.1979
    166  CA         7.7290   55.2200    1.2600 C.3    77  LEU77       0.1596
    167  C          6.5040   55.9590    0.7500 C.2    77  LEU77       0.2287
    168  O          5.5580   56.1570    1.5080 O.2    77  LEU77      -0.2864
    169  CB         8.9600   55.4240    0.3920 C.3    77  LEU77       0.0297
    170  CG        10.3030   55.3510    1.1310 C.3    77  LEU77       0.0022
    171  CD1       10.4310   54.0710    1.9640 C.3    77  LEU77       0.0001
    172  CD2       11.4320   55.4790    0.1310 C.3    77  LEU77       0.0001
    173  N         18.8490   60.7920   -5.8600 N.3   106  TRP106     -0.1241
    174  CA        19.6990   60.9020   -4.6600 C.3   106  TRP106      0.1605
    175  C         21.1540   60.8620   -5.0880 C.2   106  TRP106      0.2264
    176  O         21.4750   60.5110   -6.2300 O.2   106  TRP106     -0.2867
    177  CB        19.3680   59.8190   -3.6350 C.3   106  TRP106      0.0550
    178  CG        19.2670   58.3920   -4.0810 C.ar  106  TRP106      0.0003
    179  CD1       18.1150   57.7120   -4.3760 C.ar  106  TRP106      0.0946
    180  CD2       20.3290   57.4680   -4.2740 C.ar  106  TRP106      0.0152
    181  NE1       18.3890   56.4000   -4.7460 N.ar  106  TRP106     -0.2442
    182  CE2       19.7590   56.2440   -4.6910 C.ar  106  TRP106      0.0810
    183  CE3       21.7360   57.5690   -4.1300 C.ar  106  TRP106      0.0012
    184  CZ2       20.5360   55.1080   -4.9760 C.ar  106  TRP106      0.0191
    185  CZ3       22.4820   56.4370   -4.4200 C.ar  106  TRP106      0.0001
    186  CH2       21.8950   55.2170   -4.8410 C.ar  106  TRP106      0.0015
    187  N         25.0830   59.8760   -3.2570 N.3   108  GLN108     -0.1245
    188  CA        25.6740   59.2350   -2.0780 C.3   108  GLN108      0.1566
    189  C         27.1840   59.2220   -2.1960 C.2   108  GLN108      0.2260
    190  O         27.7380   58.9370   -3.2820 O.2   108  GLN108     -0.2867
    191  CB        25.0880   57.8220   -1.9600 C.3   108  GLN108      0.0367
    192  CG        25.5230   57.1360   -0.6590 C.3   108  GLN108      0.0905
    193  CD        24.7330   55.8570   -0.4150 C.2   108  GLN108      0.2608
    194  OE1       23.6540   55.8930    0.1840 O.2   108  GLN108     -0.2717
    195  NE2       25.2690   54.7290   -0.8620 N.am  108  GLN108     -0.0878
    196  N         24.2990   61.0160    2.2680 N.3   117  LEU117     -0.1245
    197  CA        23.2110   60.7410    1.3630 C.3   117  LEU117      0.1561
    198  C         22.3800   62.0160    1.2280 C.2   117  LEU117      0.2260
    199  O         21.8780   62.5290    2.2160 O.2   117  LEU117     -0.2867
    200  CB        22.3780   59.5430    1.8530 C.3   117  LEU117      0.0270
    201  CG        21.1260   59.2350    1.0300 C.3   117  LEU117      0.0019
    202  CD1       21.4970   58.8000   -0.3900 C.3   117  LEU117      0.0001
    203  CD2       20.2550   58.1620    1.6880 C.3   117  LEU117      0.0001
    204  N         18.9890   63.2960   -0.6010 N.3   119  ILE119     -0.1245
    205  CA        17.7860   62.8110   -1.2750 C.3   119  ILE119      0.1561
    206  C         17.0090   64.0170   -1.7830 C.2   119  ILE119      0.2260
    207  O         16.8490   64.9440   -0.9840 O.2   119  ILE119     -0.2867
    208  CB        16.9090   61.9650   -0.3350 C.3   119  ILE119      0.0252
    209  CG1       17.7090   60.8520    0.3780 C.3   119  ILE119      0.0019
    210  CG2       15.6950   61.4440   -1.0980 C.3   119  ILE119      0.0019
    211  CD1       16.9690   60.2870    1.5770 C.3   119  ILE119      0.0001
    212  N         21.5240   63.4440    4.8710 N.3   128  GLN128     -0.1245
    213  CA        21.7530   62.4560    5.9180 C.3   128  GLN128      0.1566
    214  C         23.2350   62.0960    6.0010 C.2   128  GLN128      0.2260
    215  O         23.8850   62.0770    4.9710 O.2   128  GLN128     -0.2867
    216  CB        20.9230   61.1840    5.6800 C.3   128  GLN128      0.0367
    217  CG        19.4250   61.4780    5.6270 C.3   128  GLN128      0.0905
    218  CD        18.5650   60.2760    5.3160 C.2   128  GLN128      0.2608
    219  OE1       19.0650   59.2690    4.7900 O.2   128  GLN128     -0.2717
    220  NE2       17.2630   60.3380    5.5900 N.am  128  GLN128     -0.0878
@<TRIPOS>BOND
     1   152   151    1
     2   152   153    2
     3   154   151    1
     4   154   155    1
     5   151   150    1
     6   156   155   ar
     7   156   158   ar
     8   155   157   ar
     9   158   160   ar
    10   157   159   ar
    11   176   175    2
    12   160   159   ar
    13   173   174    1
    14   175   174    1
    15   149   147    1
    16   184   186   ar
    17   184   182   ar
    18   186   185   ar
    19   181   182   ar
    20   181   179   ar
    21   182   180   ar
    22   174   177    1
    23   185   183   ar
    24   179   178   ar
    25   180   183   ar
    26   180   178   ar
    27   178   177    1
    28   145   144    1
    29   145   146    2
    30   147   144    1
    31   147   148    1
    32    34    32    1
    33   142   141    1
    34   190   189    2
    35   187   188    1
    36   144   143    1
    37   189   188    1
    38   188   191    1
    39    28    29    1
    40    28    27    1
    41    28    31    1
    42    32    31    1
    43    32    33    1
    44   191   192    1
    45   141   140   ar
    46   141   139   ar
    47    30    29    2
    48   206   205    1
    49   206   207    2
    50    87    85    1
    51   140   138   ar
    52   205   204    1
    53   205   208    1
    54    81    82    1
    55   139   137   ar
    56    86    85    1
    57   210   208    1
    58   195   193   am
    59   192   193    1
    60    85    82    1
    61   193   194    2
    62   202   201    1
    63   208   209    1
    64    17    16    1
    65    82    83    1
    66   138   136   ar
    67    84    83    2
    68    15    14    2
    69   172   170    1
    70   137   136   ar
    71   209   211    1
    72   169   170    1
    73   169   166    1
    74    18    16    1
    75   167   166    1
    76   167   168    2
    77   136   135    1
    78    16    13    1
    79    13    14    1
    80    13    12    1
    81   201   203    1
    82   201   200    1
    83   161   162    1
    84    14    19   am
    85   170   171    1
    86   198   197    1
    87   198   199    2
    88   166   165    1
    89    35    36    1
    90   165   163   am
    91   197   200    1
    92   197   196    1
    93    22    21    2
    94    40    42    1
    95    40    39    1
    96   133   134    2
    97   133   132    1
    98    21    20    1
    99   135   132    1
   100    19    20    1
   101   162   163    1
   102   163   164    2
   103    36    39    1
   104    36    37    1
   105    20    23    1
   106   132   131    1
   107    39    41    1
   108    80    79    1
   109    93    92    1
   110    37    38    2
   111    79    78    1
   112    23    24    1
   113   131   125   am
   114    88    89    1
   115    77    78    1
   116    77    76    1
   117    92    89    1
   118    92    94    1
   119   126   125    2
   120    24    25    1
   121     4     3    2
   122   125   124    1
   123   219   218    2
   124     9     7   ar
   125     9    11   ar
   126   212   213    1
   127    89    90    1
   128   215   214    2
   129    76    73    1
   130     7     6   ar
   131   218   220   am
   132   218   217    1
   133   121   120    1
   134     3     2    1
   135   217   216    1
   136     2     1    1
   137     2     5    1
   138   216   213    1
   139    91    90    2
   140    11    10   ar
   141    74    73    1
   142    74    75    2
   143    25    26    1
   144   213   214    1
   145    73    72    1
   146   120   122    1
   147   120   119    2
   148   124   127    1
   149   124   123    1
   150   118   119    1
   151   118   117    1
   152     6     5    1
   153     6     8   ar
   154   127   128    1
   155    70    69    2
   156   123   114   am
   157    49    47    1
   158    10     8   ar
   159   116   117    1
   160   116   113    1
   161    48    47    1
   162    47    44    1
   163    71    69   am
   164    69    68    1
   165   114   115    2
   166   114   113    1
   167   128   130   am
   168   128   129    2
   169   113   112    1
   170    44    45    1
   171    44    43    1
   172    54    51    1
   173    45    46    2
   174    68    67    1
   175    67    64    1
   176   110   108   ar
   177   110   111   ar
   178   112   103   am
   179   108   106   ar
   180   111   109   ar
   181    95    96    1
   182   100    99    1
   183    65    64    1
   184    65    66    2
   185    64    63    1
   186    51    52    1
   187    51    50    1
   188   104   103    2
   189   103   102    1
   190    99    96    1
   191    52    53    2
   192   106   107   ar
   193   106   105    1
   194   109   107   ar
   195    61    60    1
   196    96    97    1
   197    98    97    2
   198   105   102    1
   199   102   101    1
   200    58    57    2
   201    60    59    1
   202    60    62    1
   203    59    56    1
   204    57    56    1
   205    55    56    1
