@<TRIPOS>MOLECULE
tmp/1kqyA00.pdb
 216 204 0 0 0
SMALL
GASTEIGER

@<TRIPOS>ATOM
      1  N         17.0910   33.6380   19.0300 N.3     6  TYR6       -0.1241
      2  CA        16.1360   34.5390   19.6520 C.3     6  TYR6        0.1605
      3  C         15.0440   34.8710   18.6480 C.2     6  TYR6        0.2264
      4  O         15.3210   35.3080   17.5320 O.2     6  TYR6       -0.2867
      5  CB        16.8190   35.8240   20.1270 C.3     6  TYR6        0.0534
      6  CG        17.4780   35.6840   21.4790 C.ar    6  TYR6       -0.0201
      7  CD1       18.7360   35.0980   21.6090 C.ar    6  TYR6       -0.0009
      8  CD2       16.8230   36.1060   22.6370 C.ar    6  TYR6       -0.0009
      9  CE1       19.3270   34.9340   22.8620 C.ar    6  TYR6        0.0417
     10  CE2       17.4030   35.9440   23.8920 C.ar    6  TYR6        0.0417
     11  CZ        18.6530   35.3580   23.9970 C.ar    6  TYR6        0.1957
     12  OH        19.2280   35.1970   25.2360 O.3     6  TYR6       -0.2866
     13  N         11.2920   39.5470   18.0490 N.3     9  GLN9       -0.1231
     14  CA        11.4840   40.9860   17.8930 C.3     9  GLN9        0.1698
     15  C         11.3350   41.5830   16.4920 C.2     9  GLN9        0.2592
     16  O         11.7120   42.7310   16.2580 O.2     9  GLN9       -0.2718
     17  CB        12.8250   41.3900   18.5080 C.3     9  GLN9        0.0381
     18  CG        12.7940   41.3640   20.0260 C.3     9  GLN9        0.0905
     19  CD        11.7380   42.3000   20.5840 C.2     9  GLN9        0.2608
     20  OE1       11.7990   43.5090   20.3760 O.2     9  GLN9       -0.2717
     21  NE2       10.7580   41.7430   21.2900 N.am    9  GLN9       -0.0878
     22  N         10.7770   40.8090   15.5660 N.am   10  ASN10      -0.1960
     23  CA        10.5040   41.3040   14.2200 C.3    10  ASN10       0.1819
     24  C          9.4000   40.4620   13.5940 C.2    10  ASN10       0.2622
     25  O          9.6150   39.3060   13.2340 O.2    10  ASN10      -0.2715
     26  CB        11.7540   41.2610   13.3370 C.3    10  ASN10       0.1195
     27  CG        11.5570   42.0060   12.0240 C.2    10  ASN10       0.2630
     28  OD1       10.6630   41.6820   11.2420 O.2    10  ASN10      -0.2716
     29  ND2       12.3890   43.0130   11.7810 N.am   10  ASN10      -0.0877
     30  N          8.2180   41.0580   13.4680 N.am   11  GLY11      -0.1940
     31  CA         7.0690   40.3540   12.9250 C.3    11  GLY11       0.2014
     32  C          7.2330   39.7070   11.5630 C.2    11  GLY11       0.2638
     33  O          6.4140   38.8750   11.1800 O.2    11  GLY11      -0.2714
     34  N          8.2830   40.0740   10.8340 N.am   12  ASN12      -0.1972
     35  CA         8.5140   39.5270    9.4970 C.3    12  ASN12       0.1688
     36  C          9.4570   38.3240    9.4910 C.2    12  ASN12       0.2292
     37  O          9.7770   37.7890    8.4300 O.2    12  ASN12      -0.2864
     38  CB         9.0950   40.6070    8.5810 C.3    12  ASN12       0.1181
     39  CG         8.2000   41.8230    8.4720 C.2    12  ASN12       0.2629
     40  OD1        7.0570   41.7300    8.0230 O.2    12  ASN12      -0.2716
     41  ND2        8.7160   42.9760    8.8820 N.am   12  ASN12      -0.0877
     42  N         10.4720   39.6700   23.9900 N.3    32  PHE32      -0.1241
     43  CA        10.9830   39.7010   25.3660 C.3    32  PHE32       0.1605
     44  C          9.8380   40.0200   26.3270 C.2    32  PHE32       0.2264
     45  O          8.7970   40.5400   25.9220 O.2    32  PHE32      -0.2867
     46  CB        11.9870   40.8470   25.5600 C.3    32  PHE32       0.0534
     47  CG        13.3370   40.6170   24.9550 C.ar   32  PHE32      -0.0203
     48  CD1       14.2140   39.6890   25.5060 C.ar   32  PHE32      -0.0042
     49  CD2       13.7570   41.3770   23.8660 C.ar   32  PHE32      -0.0042
     50  CE1       15.4940   39.5220   24.9820 C.ar   32  PHE32      -0.0003
     51  CE2       15.0330   41.2190   23.3350 C.ar   32  PHE32      -0.0003
     52  CZ        15.9040   40.2900   23.8950 C.ar   32  PHE32      -0.0000
     53  N          9.8440   42.4690   28.4860 N.3    34  ASN34      -0.1240
     54  CA        10.6850   43.6290   28.7680 C.3    34  ASN34       0.1653
     55  C         10.1660   44.6020   29.8180 C.2    34  ASN34       0.2266
     56  O         10.7330   45.6810   29.9970 O.2    34  ASN34      -0.2867
     57  CB        10.9400   44.3920   27.4700 C.3    34  ASN34       0.1155
     58  CG         9.7040   45.1060   26.9670 C.2    34  ASN34       0.2627
     59  OD1        8.6090   44.5410   26.9570 O.2    34  ASN34      -0.2716
     60  ND2        9.8710   46.3530   26.5430 N.am   34  ASN34      -0.0877
     61  N          6.5620   41.8420   24.8560 N.3    45  ASN45      -0.1240
     62  CA         6.6180   42.5310   23.5770 C.3    45  ASN45       0.1653
     63  C          7.1440   41.5600   22.5350 C.2    45  ASN45       0.2266
     64  O          8.2650   41.0640   22.6500 O.2    45  ASN45      -0.2867
     65  CB         7.5360   43.7540   23.6640 C.3    45  ASN45       0.1155
     66  CG         7.7060   44.4560   22.3250 C.2    45  ASN45       0.2627
     67  OD1        8.2130   43.8730   21.3640 O.2    45  ASN45      -0.2716
     68  ND2        7.2860   45.7150   22.2580 N.am   45  ASN45      -0.0877
     69  N          7.0760   42.3650   19.1260 N.3    47  ALA47      -0.1231
     70  CA         7.0840   43.1770   17.9190 C.3    47  ALA47       0.1694
     71  C          5.7480   43.0950   17.1870 C.2    47  ALA47       0.2592
     72  O          4.6860   43.2040   17.8050 O.2    47  ALA47      -0.2718
     73  CB         8.2190   42.7280   17.0000 C.3    47  ALA47       0.0304
     74  N          5.8050   42.8930   15.8740 N.am   48  GLY48      -0.1957
     75  CA         4.5920   42.8250   15.0820 C.3    48  GLY48       0.1869
     76  C          3.9540   41.4510   15.0070 C.2    48  GLY48       0.2309
     77  O          2.9850   41.2580   14.2750 O.2    48  GLY48      -0.2863
     78  N         -0.3760   41.0320   19.4770 N.3    51  ASN51      -0.1240
     79  CA        -0.6100   41.9890   20.5490 C.3    51  ASN51       0.1653
     80  C         -1.0410   41.1410   21.7400 C.2    51  ASN51       0.2266
     81  O         -2.0720   40.4740   21.6890 O.2    51  ASN51      -0.2867
     82  CB        -1.7270   42.9590   20.1670 C.3    51  ASN51       0.1155
     83  CG        -1.8060   44.1460   21.1020 C.2    51  ASN51       0.2627
     84  OD1       -1.8620   43.9880   22.3220 O.2    51  ASN51      -0.2716
     85  ND2       -1.8150   45.3450   20.5340 N.am   51  ASN51      -0.0877
     86  N         16.1580   42.4140   27.7400 N.3    80  GLY80      -0.1210
     87  CA        16.4070   42.8290   26.3740 C.3    80  GLY80       0.1956
     88  C         16.9910   44.2270   26.3360 C.2    80  GLY80       0.2612
     89  O         17.1900   44.8480   27.3820 O.2    80  GLY80      -0.2717
     90  N         17.2570   44.7270   25.1320 N.am   81  GLY81      -0.1942
     91  CA        17.8380   46.0500   24.9910 C.3    81  GLY81       0.2014
     92  C         16.9100   47.2060   25.3220 C.2    81  GLY81       0.2638
     93  O         17.3730   48.3160   25.5840 O.2    81  GLY81      -0.2714
     94  N         15.6030   46.9570   25.3140 N.am   82  ILE82      -0.1977
     95  CA        14.6280   48.0070   25.5950 C.3    82  ILE82       0.1596
     96  C         13.5650   47.5610   26.5970 C.2    82  ILE82       0.2287
     97  O         12.9400   46.5160   26.4240 O.2    82  ILE82      -0.2864
     98  CB        13.9110   48.4500   24.3040 C.3    82  ILE82       0.0276
     99  CG1       14.9440   48.8110   23.2330 C.3    82  ILE82       0.0022
    100  CG2       13.0000   49.6390   24.5970 C.3    82  ILE82       0.0022
    101  CD1       14.3370   49.1660   21.8940 C.3    82  ILE82       0.0001
    102  N         18.1020   38.0510   30.1820 N.3   125  ALA125     -0.1245
    103  CA        18.7540   38.9560   29.2400 C.3   125  ALA125      0.1562
    104  C         18.7820   40.3530   29.8520 C.2   125  ALA125      0.2260
    105  O         18.3640   41.3290   29.2250 O.2   125  ALA125     -0.2867
    106  CB        17.9950   38.9730   27.9150 C.3   125  ALA125      0.0290
    107  N         20.3060   43.6650   30.7860 N.3   127  ALA127     -0.1245
    108  CA        21.3770   44.5230   30.2890 C.3   127  ALA127      0.1562
    109  C         21.4860   45.8750   30.9870 C.2   127  ALA127      0.2260
    110  O         22.5420   46.5070   30.9550 O.2   127  ALA127     -0.2867
    111  CB        21.2060   44.7330   28.7880 C.3   127  ALA127      0.0290
    112  N         21.9270   35.3880   29.0650 N.3   156  ALA156     -0.1245
    113  CA        22.5650   36.0160   27.9180 C.3   156  ALA156      0.1562
    114  C         23.3840   37.2270   28.3650 C.2   156  ALA156      0.2260
    115  O         23.1090   38.3560   27.9640 O.2   156  ALA156     -0.2867
    116  CB        21.5110   36.4420   26.9050 C.3   156  ALA156      0.0290
    117  N         26.4760   39.8920   28.5620 N.3   158  GLN158     -0.1245
    118  CA        27.3560   40.4130   27.5290 C.3   158  GLN158      0.1566
    119  C         28.7520   39.8930   27.8540 C.2   158  GLN158      0.2260
    120  O         29.0190   39.5070   28.9910 O.2   158  GLN158     -0.2867
    121  CB        27.2920   41.9400   27.5010 C.3   158  GLN158      0.0367
    122  CG        25.9750   42.4290   26.9140 C.3   158  GLN158      0.0905
    123  CD        25.8320   43.9280   26.9380 C.2   158  GLN158      0.2608
    124  OE1       26.6840   44.6510   26.4290 O.2   158  GLN158     -0.2717
    125  NE2       24.7420   44.4080   27.5290 N.am  158  GLN158     -0.0878
    126  N         27.0740   37.0320   25.0440 N.3   181  GLN181     -0.1245
    127  CA        26.9460   37.8680   23.8580 C.3   181  GLN181      0.1566
    128  C         28.2670   38.5400   23.5130 C.2   181  GLN181      0.2260
    129  O         28.6550   39.5350   24.1270 O.2   181  GLN181     -0.2867
    130  CB        25.8560   38.9200   24.0750 C.3   181  GLN181      0.0367
    131  CG        24.5470   38.3330   24.5800 C.3   181  GLN181      0.0905
    132  CD        23.3910   39.3030   24.4710 C.2   181  GLN181      0.2608
    133  OE1       22.9610   39.6410   23.3720 O.2   181  GLN181     -0.2717
    134  NE2       22.8840   39.7590   25.6110 N.am  181  GLN181     -0.0878
    135  N         29.2680   40.5670   21.2220 N.3   183  PHE183     -0.1227
    136  CA        29.0570   41.6660   20.2810 C.3   183  PHE183      0.1736
    137  C         28.5730   42.9090   21.0230 C.2   183  PHE183      0.2595
    138  O         28.1250   42.8210   22.1660 O.2   183  PHE183     -0.2718
    139  CB        28.0710   41.2840   19.1640 C.3   183  PHE183      0.0547
    140  CG        26.7780   40.6900   19.6470 C.ar  183  PHE183     -0.0202
    141  CD1       26.7090   39.3530   20.0350 C.ar  183  PHE183     -0.0042
    142  CD2       25.6170   41.4580   19.6810 C.ar  183  PHE183     -0.0042
    143  CE1       25.4990   38.7870   20.4470 C.ar  183  PHE183     -0.0003
    144  CE2       24.3990   40.9050   20.0930 C.ar  183  PHE183     -0.0003
    145  CZ        24.3410   39.5660   20.4750 C.ar  183  PHE183     -0.0000
    146  N         28.6650   44.0640   20.3690 N.am  184  ASN184     -0.1974
    147  CA        28.3110   45.3390   20.9890 C.3   184  ASN184      0.1688
    148  C         29.2180   45.5590   22.1970 C.2   184  ASN184      0.2292
    149  O         28.8490   46.2400   23.1550 O.2   184  ASN184     -0.2864
    150  CB        26.8430   45.3630   21.4340 C.3   184  ASN184      0.1181
    151  CG        25.8750   45.4450   20.2660 C.2   184  ASN184      0.2629
    152  OD1       26.0930   46.1950   19.3120 O.2   184  ASN184     -0.2716
    153  ND2       24.7900   44.6830   20.3430 N.am  184  ASN184     -0.0877
    154  N         23.7750   43.8930   10.2960 N.3   223  GLU223     -0.1231
    155  CA        22.6710   44.7600   10.7040 C.3   223  GLU223      0.1699
    156  C         22.1280   44.4270   12.0950 C.2   223  GLU223      0.2592
    157  O         21.5280   45.2780   12.7510 O.2   223  GLU223     -0.2718
    158  CB        21.5190   44.6680    9.6930 C.3   223  GLU223      0.0402
    159  CG        21.8540   45.0940    8.2650 C.3   223  GLU223      0.1161
    160  CD        22.8620   44.1780    7.5930 C.2   223  GLU223      0.3649
    161  OE1       22.6780   42.9430    7.6460 O.co2 223  GLU223     -0.2457
    162  OE2       23.8330   44.6950    7.0010 O.co2 223  GLU223     -0.2457
    163  N         22.3410   43.1910   12.5390 N.am  224  ALA224     -0.1966
    164  CA        21.8310   42.7270   13.8270 C.3   224  ALA224      0.1728
    165  C         22.4550   43.3910   15.0500 C.2   224  ALA224      0.2616
    166  O         21.9140   43.2910   16.1510 O.2   224  ALA224     -0.2715
    167  CB        21.9900   41.2110   13.9280 C.3   224  ALA224      0.0334
    168  N         23.5860   44.0640   14.8700 N.am  225  ALA225     -0.1963
    169  CA        24.2540   44.7100   15.9940 C.3   225  ALA225      0.1728
    170  C         25.0910   45.9080   15.5640 C.2   225  ALA225      0.2616
    171  O         25.3750   46.0870   14.3800 O.2   225  ALA225     -0.2715
    172  CB        25.1320   43.6950   16.7260 C.3   225  ALA225      0.0334
    173  N         25.4800   46.7280   16.5360 N.am  226  GLY226     -0.1955
    174  CA        26.2980   47.8910   16.2420 C.3   226  GLY226      0.1869
    175  C         27.6790   47.4810   15.7680 C.2   226  GLY226      0.2309
    176  O         28.2690   48.1380   14.9080 O.2   226  GLY226     -0.2863
    177  N         24.9380   30.8350   19.7860 N.3   253  MET253     -0.1245
    178  CA        23.6770   31.5460   19.9590 C.3   253  MET253      0.1570
    179  C         23.6620   32.6870   18.9510 C.2   253  MET253      0.2261
    180  O         24.6920   33.3190   18.7060 O.2   253  MET253     -0.2867
    181  CB        23.5620   32.0910   21.3860 C.3   253  MET253      0.0387
    182  CG        22.3170   32.9340   21.6450 C.3   253  MET253      0.0595
    183  SD        22.4350   34.6260   21.0030 S.3   253  MET253     -0.1393
    184  CE        23.1650   35.4580   22.4070 C.3   253  MET253      0.0692
    185  N         21.5990   36.2700   17.3550 N.3   255  TRP255     -0.1227
    186  CA        20.6050   37.3270   17.4130 C.3   255  TRP255      0.1737
    187  C         20.5710   37.9040   16.0030 C.2   255  TRP255      0.2596
    188  O         21.5380   38.5310   15.5730 O.2   255  TRP255     -0.2718
    189  CB        20.9960   38.4220   18.4140 C.3   255  TRP255      0.0564
    190  CG        20.0120   39.5570   18.3980 C.ar  255  TRP255      0.0003
    191  CD1       20.0110   40.6300   17.5510 C.ar  255  TRP255      0.0946
    192  CD2       18.8110   39.6580   19.1720 C.ar  255  TRP255      0.0152
    193  NE1       18.8780   41.3860   17.7430 N.ar  255  TRP255     -0.2442
    194  CE2       18.1230   40.8120   18.7310 C.ar  255  TRP255      0.0810
    195  CE3       18.2440   38.8810   20.1910 C.ar  255  TRP255      0.0012
    196  CZ2       16.8970   41.2090   19.2740 C.ar  255  TRP255      0.0191
    197  CZ3       17.0220   39.2770   20.7310 C.ar  255  TRP255      0.0001
    198  CH2       16.3630   40.4310   20.2680 C.ar  255  TRP255      0.0015
    199  N         19.4840   37.6800   15.2660 N.am  256  SER256     -0.1952
    200  CA        18.3250   36.9180   15.7260 C.3   256  SER256      0.1924
    201  C         17.7310   36.1670   14.5330 C.2   256  SER256      0.2314
    202  O         18.3330   36.1300   13.4610 O.2   256  SER256     -0.2863
    203  CB        17.2790   37.8680   16.3000 C.3   256  SER256      0.2116
    204  OG        16.9030   38.8200   15.3210 O.3   256  SER256     -0.2180
    205  N         17.4380   38.3870   11.2270 N.3   259  TYR259     -0.1241
    206  CA        18.7100   38.6200   10.5580 C.3   259  TYR259      0.1605
    207  C         19.3910   37.3330   10.1190 C.2   259  TYR259      0.2264
    208  O         20.2330   37.3420    9.2200 O.2   259  TYR259     -0.2867
    209  CB        19.6300   39.4300   11.4740 C.3   259  TYR259      0.0534
    210  CG        19.1050   40.8260   11.7120 C.ar  259  TYR259     -0.0201
    211  CD1       19.0700   41.7580   10.6740 C.ar  259  TYR259     -0.0009
    212  CD2       18.5820   41.1990   12.9520 C.ar  259  TYR259     -0.0009
    213  CE1       18.5240   43.0240   10.8590 C.ar  259  TYR259      0.0417
    214  CE2       18.0310   42.4680   13.1490 C.ar  259  TYR259      0.0417
    215  CZ        18.0060   43.3720   12.0950 C.ar  259  TYR259      0.1957
    216  OH        17.4540   44.6220   12.2660 O.3   259  TYR259     -0.2866
@<TRIPOS>BOND
     1   162   160   ar
     2   160   161   ar
     3   160   159    1
     4    40    39    2
     5   159   158    1
     6    37    36    2
     7    39    38    1
     8    39    41   am
     9    38    35    1
    10   208   207    2
    11    36    35    1
    12    35    34    1
    13   158   155    1
    14   207   206    1
    15   154   155    1
    16   206   205    1
    17   206   209    1
    18   211   213   ar
    19   211   210   ar
    20   155   156    1
    21    34    32   am
    22   213   215   ar
    23    33    32    2
    24    28    27    2
    25   209   210    1
    26    32    31    1
    27   210   212   ar
    28    29    27   am
    29    27    26    1
    30   156   163   am
    31   156   157    2
    32   215   216    1
    33   215   214   ar
    34   163   164    1
    35    31    30    1
    36   212   214   ar
    37    25    24    2
    38    26    23    1
    39   202   201    2
    40    30    24   am
    41    24    23    1
    42   164   167    1
    43   164   165    1
    44    23    22    1
    45    77    76    2
    46   171   170    2
    47   201   200    1
    48   168   165   am
    49   168   169    1
    50   176   175    2
    51    76    75    1
    52   165   166    2
    53    75    74    1
    54   199   200    1
    55   199   187   am
    56   204   203    1
    57   170   169    1
    58   170   173   am
    59    22    15   am
    60   188   187    2
    61   200   203    1
    62   175   174    1
    63    74    71   am
    64   169   172    1
    65   187   186    1
    66   174   173    1
    67    16    15    2
    68    15    14    1
    69    73    70    1
    70    71    72    2
    71    71    70    1
    72   185   186    1
    73   186   189    1
    74     4     3    2
    75   191   193   ar
    76   191   190   ar
    77   193   194   ar
    78    14    13    1
    79    14    17    1
    80    70    69    1
    81   190   189    1
    82   190   192   ar
    83    17    18    1
    84     3     2    1
    85   180   179    2
    86   194   192   ar
    87   194   196   ar
    88   179   178    1
    89     1     2    1
    90   139   140    1
    91   139   136    1
    92   192   195   ar
    93   196   198   ar
    94   152   151    2
    95    78    79    1
    96   140   142   ar
    97   140   141   ar
    98     2     5    1
    99   142   144   ar
   100   177   178    1
   101   178   181    1
   102    18    19    1
   103   141   143   ar
   104   144   145   ar
   105     5     6    1
   106    82    79    1
   107    82    83    1
   108   195   197   ar
   109   151   153   am
   110   151   150    1
   111   198   197   ar
   112   136   137    1
   113   136   135    1
   114   146   147    1
   115   146   137   am
   116    20    19    2
   117   143   145   ar
   118    85    83   am
   119    79    80    1
   120    19    21   am
   121   147   150    1
   122   147   148    1
   123   183   182    1
   124   183   184    1
   125   137   138    2
   126    83    84    2
   127    67    66    2
   128   181   182    1
   129     6     7   ar
   130     6     8   ar
   131     7     9   ar
   132    81    80    2
   133   101    99    1
   134   148   149    2
   135    68    66   am
   136    66    65    1
   137    63    64    2
   138    63    62    1
   139     8    10   ar
   140     9    11   ar
   141    99    98    1
   142    51    49   ar
   143    51    52   ar
   144   133   132    2
   145   128   127    1
   146   128   129    2
   147    62    65    1
   148    62    61    1
   149   127   130    1
   150   127   126    1
   151    49    47   ar
   152    10    11   ar
   153    52    50   ar
   154    42    43    1
   155    11    12    1
   156   130   131    1
   157    98   100    1
   158    98    95    1
   159   132   131    1
   160   132   134   am
   161    47    48   ar
   162    47    46    1
   163    50    48   ar
   164    91    90    1
   165    91    92    1
   166    90    88   am
   167    94    92   am
   168    94    95    1
   169    92    93    2
   170    43    46    1
   171    43    44    1
   172    95    96    1
   173    45    44    2
   174    88    87    1
   175    88    89    2
   176    87    86    1
   177    97    96    2
   178   124   123    2
   179    60    58   am
   180   116   113    1
   181   122   123    1
   182   122   121    1
   183   123   125   am
   184    59    58    2
   185    58    57    1
   186    57    54    1
   187   121   118    1
   188   118   119    1
   189   118   117    1
   190   119   120    2
   191   106   103    1
   192   113   114    1
   193   113   112    1
   194   115   114    2
   195    53    54    1
   196    54    55    1
   197   111   108    1
   198   105   104    2
   199   103   104    1
   200   103   102    1
   201    55    56    2
   202   108   107    1
   203   108   109    1
   204   110   109    2
