@<TRIPOS>MOLECULE
tmp/1kqzA00.pdb
 208 197 0 0 0
SMALL
GASTEIGER

@<TRIPOS>ATOM
      1  N         17.0870   34.2890   19.4150 N.3     6  TYR6       -0.1241
      2  CA        16.1510   35.1810   20.0880 C.3     6  TYR6        0.1605
      3  C         15.0390   35.5350   19.1080 C.2     6  TYR6        0.2264
      4  O         15.3000   35.9540   17.9800 O.2     6  TYR6       -0.2867
      5  CB        16.8410   36.4600   20.5630 C.3     6  TYR6        0.0534
      6  CG        17.5240   36.3230   21.9070 C.ar    6  TYR6       -0.0201
      7  CD1       18.8030   35.7720   22.0160 C.ar    6  TYR6       -0.0009
      8  CD2       16.8790   36.7250   23.0760 C.ar    6  TYR6       -0.0009
      9  CE1       19.4190   35.6250   23.2570 C.ar    6  TYR6        0.0417
     10  CE2       17.4880   36.5840   24.3210 C.ar    6  TYR6        0.0417
     11  CZ        18.7570   36.0320   24.4040 C.ar    6  TYR6        0.1957
     12  OH        19.3600   35.8810   25.6340 O.3     6  TYR6       -0.2866
     13  N         11.2680   40.2710   18.6580 N.3     9  GLN9       -0.1231
     14  CA        11.4550   41.7200   18.5420 C.3     9  GLN9        0.1698
     15  C         11.2810   42.3640   17.1640 C.2     9  GLN9        0.2592
     16  O         11.6930   43.5050   16.9460 O.2     9  GLN9       -0.2718
     17  CB        12.8080   42.1160   19.1430 C.3     9  GLN9        0.0381
     18  CG        12.7930   42.1000   20.6630 C.3     9  GLN9        0.0905
     19  CD        11.7280   43.0240   21.2230 C.2     9  GLN9        0.2608
     20  OE1       11.7920   44.2370   21.0430 O.2     9  GLN9       -0.2717
     21  NE2       10.7370   42.4530   21.8940 N.am    9  GLN9       -0.0878
     22  N         10.6600   41.6340   16.2430 N.am   10  ASN10      -0.1960
     23  CA        10.3670   42.1570   14.9130 C.3    10  ASN10       0.1819
     24  C          9.2380   41.3180   14.3180 C.2    10  ASN10       0.2622
     25  O          9.4140   40.1330   14.0390 O.2    10  ASN10      -0.2715
     26  CB        11.6070   42.1000   14.0170 C.3    10  ASN10       0.1195
     27  CG        11.4500   42.9300   12.7510 C.2    10  ASN10       0.2630
     28  OD1       10.5600   42.6820   11.9370 O.2    10  ASN10      -0.2716
     29  ND2       12.3180   43.9220   12.5810 N.am   10  ASN10      -0.0877
     30  N          8.0770   41.9420   14.1360 N.am   11  GLY11      -0.1940
     31  CA         6.9110   41.2380   13.6310 C.3    11  GLY11       0.2014
     32  C          7.0170   40.6190   12.2510 C.2    11  GLY11       0.2638
     33  O          6.1410   39.8490   11.8520 O.2    11  GLY11      -0.2714
     34  N          8.0810   40.9420   11.5220 N.am   12  ASN12      -0.1972
     35  CA         8.2720   40.4150   10.1740 C.3    12  ASN12       0.1688
     36  C          9.1860   39.1950   10.1320 C.2    12  ASN12       0.2292
     37  O          9.5000   38.6920    9.0540 O.2    12  ASN12      -0.2864
     38  CB         8.8650   41.4940    9.2680 C.3    12  ASN12       0.1181
     39  CG         8.0380   42.7580    9.2540 C.2    12  ASN12       0.2629
     40  OD1        6.8500   42.7320    8.9280 O.2    12  ASN12      -0.2716
     41  ND2        8.6600   43.8770    9.6130 N.am   12  ASN12      -0.0877
     42  N         10.5750   40.2490   24.6980 N.3    32  PHE32      -0.1241
     43  CA        11.1460   40.2660   26.0510 C.3    32  PHE32       0.1605
     44  C         10.0320   40.5560   27.0610 C.2    32  PHE32       0.2264
     45  O          8.9770   41.0830   26.7030 O.2    32  PHE32      -0.2867
     46  CB        12.1450   41.4270   26.2230 C.3    32  PHE32       0.0534
     47  CG        13.4790   41.2260   25.5590 C.ar   32  PHE32      -0.0203
     48  CD1       14.3690   40.2650   26.0260 C.ar   32  PHE32      -0.0042
     49  CD2       13.8660   42.0370   24.4920 C.ar   32  PHE32      -0.0042
     50  CE1       15.6250   40.1140   25.4400 C.ar   32  PHE32      -0.0003
     51  CE2       15.1140   41.8940   23.9030 C.ar   32  PHE32      -0.0003
     52  CZ        15.9970   40.9300   24.3790 C.ar   32  PHE32      -0.0000
     53  N         10.0550   42.9740   29.3000 N.3    34  ASN34      -0.1240
     54  CA        10.9080   44.1250   29.5870 C.3    34  ASN34       0.1653
     55  C         10.4250   45.0860   30.6590 C.2    34  ASN34       0.2266
     56  O         11.0690   46.1010   30.9090 O.2    34  ASN34      -0.2867
     57  CB        11.1670   44.9050   28.2930 C.3    34  ASN34       0.1155
     58  CG         9.9410   45.6570   27.8080 C.2    34  ASN34       0.2627
     59  OD1        8.8400   45.1080   27.7660 O.2    34  ASN34      -0.2716
     60  ND2       10.1280   46.9220   27.4380 N.am   34  ASN34      -0.0877
     61  N          6.6690   42.4450   25.7090 N.3    45  ASN45      -0.1240
     62  CA         6.7030   43.1890   24.4580 C.3    45  ASN45       0.1653
     63  C          7.1890   42.2460   23.3680 C.2    45  ASN45       0.2266
     64  O          8.3220   41.7670   23.4170 O.2    45  ASN45      -0.2867
     65  CB         7.6530   44.3860   24.5870 C.3    45  ASN45       0.1155
     66  CG         7.8320   45.1440   23.2790 C.2    45  ASN45       0.2627
     67  OD1        8.3100   44.5940   22.2850 O.2    45  ASN45      -0.2716
     68  ND2        7.4540   46.4180   23.2790 N.am   45  ASN45      -0.0877
     69  N          7.0310   43.1130   20.0230 N.3    47  ALA47      -0.1231
     70  CA         7.0130   43.9820   18.8580 C.3    47  ALA47       0.1694
     71  C          5.6690   43.9270   18.1450 C.2    47  ALA47       0.2592
     72  O          4.6250   44.0820   18.7720 O.2    47  ALA47      -0.2718
     73  CB         8.1390   43.5930   17.9050 C.3    47  ALA47       0.0304
     74  N          5.7000   43.6940   16.8360 N.am   48  GLY48      -0.1957
     75  CA         4.4740   43.6530   16.0580 C.3    48  GLY48       0.1869
     76  C          3.8120   42.2940   15.9230 C.2    48  GLY48       0.2309
     77  O          2.8150   42.1650   15.2130 O.2    48  GLY48      -0.2863
     78  N         16.4320   42.9230   28.3200 N.3    80  GLY80      -0.1210
     79  CA        16.6470   43.3830   26.9630 C.3    80  GLY80       0.1956
     80  C         17.2340   44.7810   26.9760 C.2    80  GLY80       0.2612
     81  O         17.4060   45.3770   28.0410 O.2    80  GLY80      -0.2717
     82  N         17.5320   45.3140   25.7970 N.am   81  GLY81      -0.1942
     83  CA        18.1280   46.6350   25.7170 C.3    81  GLY81       0.2014
     84  C         17.2300   47.8000   26.0890 C.2    81  GLY81       0.2638
     85  O         17.7280   48.8690   26.4360 O.2    81  GLY81      -0.2714
     86  N         15.9160   47.6060   26.0230 N.am   82  ILE82      -0.1977
     87  CA        14.9690   48.6760   26.3320 C.3    82  ILE82       0.1596
     88  C         13.9430   48.2580   27.3800 C.2    82  ILE82       0.2287
     89  O         13.2760   47.2390   27.2220 O.2    82  ILE82      -0.2864
     90  CB        14.1790   49.1000   25.0750 C.3    82  ILE82       0.0276
     91  CG1       15.1360   49.4720   23.9420 C.3    82  ILE82       0.0022
     92  CG2       13.2570   50.2600   25.4150 C.3    82  ILE82       0.0022
     93  CD1       14.4370   49.7860   22.6350 C.3    82  ILE82       0.0001
     94  N         18.4260   38.4730   30.6820 N.3   125  ALA125     -0.1245
     95  CA        19.1110   39.3980   29.7880 C.3   125  ALA125      0.1562
     96  C         19.0970   40.7900   30.4210 C.2   125  ALA125      0.2260
     97  O         18.6270   41.7580   29.8190 O.2   125  ALA125     -0.2867
     98  CB        18.4200   39.4210   28.4250 C.3   125  ALA125      0.0290
     99  N         20.5590   44.1010   31.3110 N.3   127  ALA127     -0.1245
    100  CA        21.6020   44.9640   30.7760 C.3   127  ALA127      0.1562
    101  C         21.7550   46.3010   31.4950 C.2   127  ALA127      0.2260
    102  O         22.7550   46.9910   31.3120 O.2   127  ALA127     -0.2867
    103  CB        21.3560   45.2000   29.2920 C.3   127  ALA127      0.0290
    104  N         22.3160   35.8900   29.5010 N.3   156  ALA156     -0.1245
    105  CA        22.9570   36.4970   28.3460 C.3   156  ALA156      0.1562
    106  C         23.7780   37.7140   28.7730 C.2   156  ALA156      0.2260
    107  O         23.4490   38.8530   28.4390 O.2   156  ALA156     -0.2867
    108  CB        21.9050   36.9000   27.3260 C.3   156  ALA156      0.0290
    109  N         27.0090   40.4320   29.0590 N.3   158  GLN158     -0.1245
    110  CA        27.8590   41.1040   28.0800 C.3   158  GLN158      0.1566
    111  C         29.2160   40.4210   28.2390 C.2   158  GLN158      0.2260
    112  O         29.4930   39.8500   29.2940 O.2   158  GLN158     -0.2867
    113  CB        27.9720   42.5910   28.4180 C.3   158  GLN158      0.0367
    114  CG        26.6330   43.3070   28.5490 C.3   158  GLN158      0.0905
    115  CD        26.0050   43.6290   27.2100 C.2   158  GLN158      0.2608
    116  OE1       26.5110   44.4670   26.4600 O.2   158  GLN158     -0.2717
    117  NE2       24.8990   42.9640   26.8990 N.am  158  GLN158     -0.0878
    118  N         27.3420   37.5670   25.2080 N.3   181  GLN181     -0.1245
    119  CA        27.2060   38.4210   24.0380 C.3   181  GLN181      0.1566
    120  C         28.5250   39.0890   23.6770 C.2   181  GLN181      0.2260
    121  O         28.9400   40.0660   24.3050 O.2   181  GLN181     -0.2867
    122  CB        26.1250   39.4740   24.2900 C.3   181  GLN181      0.0367
    123  CG        24.8080   38.8770   24.7560 C.3   181  GLN181      0.0905
    124  CD        23.6840   39.8860   24.7740 C.2   181  GLN181      0.2608
    125  OE1       23.3040   40.4210   23.7350 O.2   181  GLN181     -0.2717
    126  NE2       23.1420   40.1520   25.9560 N.am  181  GLN181     -0.0878
    127  N         29.4300   41.1270   21.4060 N.3   183  PHE183     -0.1227
    128  CA        29.2040   42.2650   20.5150 C.3   183  PHE183      0.1736
    129  C         28.7660   43.4860   21.3220 C.2   183  PHE183      0.2595
    130  O         28.3910   43.3630   22.4900 O.2   183  PHE183     -0.2718
    131  CB        28.1760   41.9430   19.4100 C.3   183  PHE183      0.0547
    132  CG        26.8710   41.3800   19.9120 C.ar  183  PHE183     -0.0202
    133  CD1       26.7770   40.0500   20.3150 C.ar  183  PHE183     -0.0042
    134  CD2       25.7270   42.1750   19.9570 C.ar  183  PHE183     -0.0042
    135  CE1       25.5590   39.5160   20.7570 C.ar  183  PHE183     -0.0003
    136  CE2       24.5040   41.6510   20.3980 C.ar  183  PHE183     -0.0003
    137  CZ        24.4220   40.3200   20.7980 C.ar  183  PHE183     -0.0000
    138  N         28.8240   44.6590   20.6930 N.am  184  ASN184     -0.1974
    139  CA        28.5030   45.9260   21.3490 C.3   184  ASN184      0.1688
    140  C         29.4260   46.1480   22.5450 C.2   184  ASN184      0.2292
    141  O         29.0710   46.8370   23.5000 O.2   184  ASN184     -0.2864
    142  CB        27.0390   45.9640   21.8060 C.3   184  ASN184      0.1181
    143  CG        26.0690   46.1170   20.6480 C.2   184  ASN184      0.2629
    144  OD1       26.3420   46.8320   19.6860 O.2   184  ASN184     -0.2716
    145  ND2       24.9230   45.4560   20.7450 N.am  184  ASN184     -0.0877
    146  N         23.6670   44.6970   10.6610 N.3   223  GLU223     -0.1231
    147  CA        22.6520   45.6300   11.1390 C.3   223  GLU223      0.1699
    148  C         22.0510   45.2270   12.4820 C.2   223  GLU223      0.2592
    149  O         21.3310   46.0100   13.1020 O.2   223  GLU223     -0.2718
    150  CB        21.5260   45.7680   10.1020 C.3   223  GLU223      0.0402
    151  CG        21.9850   46.3170    8.7580 C.3   223  GLU223      0.1161
    152  CD        22.4560   45.2390    7.7920 C.2   223  GLU223      0.3649
    153  OE1       22.9460   44.1810    8.2450 O.co2 223  GLU223     -0.2457
    154  OE2       22.3460   45.4610    6.5680 O.co2 223  GLU223     -0.2457
    155  N         22.3490   44.0130   12.9330 N.am  224  ALA224     -0.1966
    156  CA        21.8050   43.5130   14.1920 C.3   224  ALA224      0.1728
    157  C         22.4530   44.1460   15.4200 C.2   224  ALA224      0.2616
    158  O         21.9170   44.0520   16.5260 O.2   224  ALA224     -0.2715
    159  CB        21.9430   41.9960   14.2550 C.3   224  ALA224      0.0334
    160  N         23.6010   44.7910   15.2300 N.am  225  ALA225     -0.1963
    161  CA        24.3080   45.4230   16.3420 C.3   225  ALA225      0.1728
    162  C         25.1390   46.6270   15.8960 C.2   225  ALA225      0.2616
    163  O         25.3390   46.8470   14.6990 O.2   225  ALA225     -0.2715
    164  CB        25.2060   44.3990   17.0310 C.3   225  ALA225      0.0334
    165  N         25.6170   47.4030   16.8650 N.am  226  GLY226     -0.1955
    166  CA        26.4350   48.5650   16.5540 C.3   226  GLY226      0.1869
    167  C         27.8290   48.1690   16.0980 C.2   226  GLY226      0.2309
    168  O         28.4600   48.8670   15.2970 O.2   226  GLY226     -0.2863
    169  N         24.9310   31.4310   19.9000 N.3   253  MET253     -0.1245
    170  CA        23.6850   32.1600   20.1070 C.3   253  MET253      0.1570
    171  C         23.6670   33.3160   19.1060 C.2   253  MET253      0.2261
    172  O         24.7100   33.9060   18.8200 O.2   253  MET253     -0.2867
    173  CB        23.6190   32.6960   21.5390 C.3   253  MET253      0.0387
    174  CG        22.3990   33.5600   21.8420 C.3   253  MET253      0.0595
    175  SD        22.5740   35.2940   21.3400 S.3   253  MET253     -0.1393
    176  CE        23.3200   35.9930   22.8130 C.3   253  MET253      0.0692
    177  N         21.5770   36.9790   17.6420 N.3   255  TRP255     -0.1227
    178  CA        20.5780   38.0290   17.7400 C.3   255  TRP255      0.1737
    179  C         20.4830   38.6530   16.3500 C.2   255  TRP255      0.2596
    180  O         21.4310   39.2940   15.9000 O.2   255  TRP255     -0.2718
    181  CB        20.9900   39.0980   18.7570 C.3   255  TRP255      0.0564
    182  CG        20.0320   40.2450   18.7840 C.ar  255  TRP255      0.0003
    183  CD1       20.0440   41.3440   17.9750 C.ar  255  TRP255      0.0946
    184  CD2       18.8450   40.3450   19.5780 C.ar  255  TRP255      0.0152
    185  NE1       18.9320   42.1210   18.2100 N.ar  255  TRP255     -0.2442
    186  CE2       18.1790   41.5300   19.1890 C.ar  255  TRP255      0.0810
    187  CE3       18.2760   39.5450   20.5800 C.ar  255  TRP255      0.0012
    188  CZ2       16.9690   41.9320   19.7660 C.ar  255  TRP255      0.0191
    189  CZ3       17.0690   39.9490   21.1550 C.ar  255  TRP255      0.0001
    190  CH2       16.4320   41.1310   20.7440 C.ar  255  TRP255      0.0015
    191  N         19.3630   38.4540   15.6540 N.am  256  SER256     -0.1952
    192  CA        18.2290   37.6710   16.1380 C.3   256  SER256      0.1924
    193  C         17.5950   36.9550   14.9470 C.2   256  SER256      0.2314
    194  O         18.1580   36.9560   13.8520 O.2   256  SER256     -0.2863
    195  CB        17.1960   38.5880   16.7920 C.3   256  SER256      0.2116
    196  OG        16.7760   39.5890   15.8820 O.3   256  SER256     -0.2180
    197  N         17.1310   39.1000   11.6540 N.3   259  TYR259     -0.1241
    198  CA        18.3710   39.3290   10.9240 C.3   259  TYR259      0.1605
    199  C         19.0170   38.0480   10.4030 C.2   259  TYR259      0.2264
    200  O         19.7400   38.0700    9.4080 O.2   259  TYR259     -0.2867
    201  CB        19.3440   40.1110   11.8120 C.3   259  TYR259      0.0534
    202  CG        18.8700   41.5210   12.0900 C.ar  259  TYR259     -0.0201
    203  CD1       18.8770   42.4840   11.0810 C.ar  259  TYR259     -0.0009
    204  CD2       18.3700   41.8830   13.3450 C.ar  259  TYR259     -0.0009
    205  CE1       18.3970   43.7690   11.3050 C.ar  259  TYR259      0.0417
    206  CE2       17.8850   43.1740   13.5810 C.ar  259  TYR259      0.0417
    207  CZ        17.9030   44.1080   12.5520 C.ar  259  TYR259      0.1957
    208  OH        17.4240   45.3810   12.7500 O.3   259  TYR259     -0.2866
@<TRIPOS>BOND
     1   154   152   ar
     2   152   153   ar
     3   152   151    1
     4   151   150    1
     5    40    39    2
     6    37    36    2
     7    39    38    1
     8    39    41   am
     9    38    35    1
    10   200   199    2
    11   150   147    1
    12    36    35    1
    13    35    34    1
    14   199   198    1
    15   146   147    1
    16   198   197    1
    17   198   201    1
    18   203   205   ar
    19   203   202   ar
    20   147   148    1
    21   205   207   ar
    22    34    32   am
    23   201   202    1
    24    33    32    2
    25    28    27    2
    26   202   204   ar
    27    32    31    1
    28   148   155   am
    29   148   149    2
    30   207   208    1
    31   207   206   ar
    32    29    27   am
    33    27    26    1
    34   155   156    1
    35   204   206   ar
    36    31    30    1
    37   194   193    2
    38    26    23    1
    39    25    24    2
    40    30    24   am
    41   156   159    1
    42   156   157    1
    43    24    23    1
    44   163   162    2
    45    23    22    1
    46   193   192    1
    47    77    76    2
    48   160   157   am
    49   160   161    1
    50   168   167    2
    51   157   158    2
    52   191   192    1
    53   191   179   am
    54   196   195    1
    55   162   161    1
    56   162   165   am
    57   180   179    2
    58    76    75    1
    59    75    74    1
    60   167   166    1
    61   192   195    1
    62    22    15   am
    63   161   164    1
    64   179   178    1
    65   166   165    1
    66    74    71   am
    67    16    15    2
    68    15    14    1
    69   177   178    1
    70   178   181    1
    71    73    70    1
    72   183   185   ar
    73   183   182   ar
    74     4     3    2
    75    71    72    2
    76    71    70    1
    77   185   186   ar
    78    14    13    1
    79    14    17    1
    80   181   182    1
    81   182   184   ar
    82   172   171    2
    83    70    69    1
    84   171   170    1
    85     3     2    1
    86    17    18    1
    87   186   184   ar
    88   186   188   ar
    89   131   132    1
    90   131   128    1
    91     1     2    1
    92   184   187   ar
    93   144   143    2
    94   188   190   ar
    95   169   170    1
    96   132   134   ar
    97   132   133   ar
    98   134   136   ar
    99     2     5    1
   100   170   173    1
   101   133   135   ar
   102   136   137   ar
   103   128   129    1
   104   128   127    1
   105     5     6    1
   106   187   189   ar
   107   143   145   am
   108   143   142    1
   109    18    19    1
   110   138   129   am
   111   138   139    1
   112   190   189   ar
   113   135   137   ar
   114    20    19    2
   115    19    21   am
   116   129   130    2
   117   175   174    1
   118   175   176    1
   119   139   142    1
   120   139   140    1
   121   173   174    1
   122     6     7   ar
   123     6     8   ar
   124     7     9   ar
   125    67    66    2
   126   140   141    2
   127    93    91    1
   128     8    10   ar
   129     9    11   ar
   130    66    68   am
   131    66    65    1
   132    63    64    2
   133    63    62    1
   134   120   119    1
   135   120   121    2
   136   125   124    2
   137    51    52   ar
   138    51    49   ar
   139    91    90    1
   140   119   122    1
   141   119   118    1
   142   122   123    1
   143    10    11   ar
   144    52    50   ar
   145    11    12    1
   146    62    65    1
   147    62    61    1
   148    49    47   ar
   149    42    43    1
   150   123   124    1
   151   124   126   am
   152    90    92    1
   153    90    87    1
   154    50    48   ar
   155    47    48   ar
   156    47    46    1
   157    83    82    1
   158    83    84    1
   159    82    80   am
   160    86    84   am
   161    86    87    1
   162    43    46    1
   163    43    44    1
   164    84    85    2
   165    87    88    1
   166   116   115    2
   167    45    44    2
   168   117   115   am
   169    79    80    1
   170    79    78    1
   171    80    81    2
   172   115   114    1
   173    89    88    2
   174   108   105    1
   175    60    58   am
   176    59    58    2
   177    58    57    1
   178   110   111    1
   179   110   113    1
   180   110   109    1
   181   111   112    2
   182    57    54    1
   183   105   106    1
   184   105   104    1
   185   113   114    1
   186    98    95    1
   187   107   106    2
   188   103   100    1
   189    53    54    1
   190    54    55    1
   191    95    96    1
   192    95    94    1
   193    97    96    2
   194    55    56    2
   195   100    99    1
   196   100   101    1
   197   102   101    2
