@<TRIPOS>MOLECULE
tmp/1kreA03.pdb
 124 119 0 0 0
SMALL
GASTEIGER

@<TRIPOS>ATOM
      1  N         23.8020   27.7440  -45.4840 N.3    86  PHE86      -0.1227
      2  CA        25.2100   28.0010  -45.7600 C.3    86  PHE86       0.1736
      3  C         26.1060   26.7580  -45.6130 C.2    86  PHE86       0.2595
      4  O         26.8330   26.4050  -46.5330 O.2    86  PHE86      -0.2718
      5  CB        25.6770   29.1410  -44.8400 C.3    86  PHE86       0.0547
      6  CG        27.1690   29.2670  -44.7000 C.ar   86  PHE86      -0.0202
      7  CD1       27.8080   28.8160  -43.5530 C.ar   86  PHE86      -0.0042
      8  CD2       27.9250   29.9190  -45.6750 C.ar   86  PHE86      -0.0042
      9  CE1       29.1860   29.0190  -43.3630 C.ar   86  PHE86      -0.0003
     10  CE2       29.3040   30.1280  -45.4970 C.ar   86  PHE86      -0.0003
     11  CZ        29.9300   29.6780  -44.3400 C.ar   86  PHE86      -0.0000
     12  N         26.0510   26.0910  -44.4680 N.am   87  GLU87      -0.1979
     13  CA        26.8900   24.9100  -44.2690 C.3    87  GLU87       0.1602
     14  C         26.5730   23.8060  -45.2720 C.2    87  GLU87       0.2287
     15  O         27.4720   23.1630  -45.8000 O.2    87  GLU87      -0.2864
     16  CB        26.7260   24.3720  -42.8430 C.3    87  GLU87       0.0415
     17  CG        27.2680   25.2940  -41.7580 C.3    87  GLU87       0.1163
     18  CD        28.7900   25.3610  -41.7340 C.2    87  GLU87       0.3649
     19  OE1       29.3420   26.1180  -40.9160 O.co2  87  GLU87      -0.2457
     20  OE2       29.4410   24.6540  -42.5220 O.co2  87  GLU87      -0.2457
     21  N         28.0860   24.9270  -48.8270 N.3    90  ILE90      -0.1231
     22  CA        29.5400   24.8420  -48.9910 C.3    90  ILE90       0.1692
     23  C         30.1860   23.4720  -48.7940 C.2    90  ILE90       0.2591
     24  O         31.2840   23.2300  -49.3060 O.2    90  ILE90      -0.2718
     25  CB        30.2760   25.8520  -48.0890 C.3    90  ILE90       0.0266
     26  CG1       30.1040   25.4720  -46.6170 C.3    90  ILE90       0.0019
     27  CG2       29.7490   27.2690  -48.3720 C.3    90  ILE90       0.0020
     28  CD1       31.0750   26.1920  -45.6840 C.3    90  ILE90       0.0001
     29  N         29.5390   22.5720  -48.0610 N.am   91  ARG91      -0.1980
     30  CA        30.1300   21.2450  -47.8830 C.3    91  ARG91       0.1597
     31  C         29.4930   20.2290  -48.8370 C.2    91  ARG91       0.2287
     32  O         30.1570   19.7010  -49.7300 O.2    91  ARG91      -0.2864
     33  CB        29.9700   20.7500  -46.4380 C.3    91  ARG91       0.0334
     34  CG        30.4280   21.7510  -45.3810 C.3    91  ARG91       0.0492
     35  CD        30.7600   21.0880  -44.0390 C.3    91  ARG91       0.2205
     36  NE        30.8910   22.1050  -42.9950 N.pl3  91  ARG91      -0.0865
     37  CZ        31.4890   21.9240  -41.8200 C.cat  91  ARG91       0.5346
     38  NH1       32.0380   20.7540  -41.5120 N.pl3  91  ARG91       0.1354
     39  NH2       31.5130   22.9170  -40.9370 N.pl3  91  ARG91       0.1354
     40  N         33.8220   37.2450  -43.4810 N.3   232  ASP232     -0.1225
     41  CA        34.8470   36.6770  -44.3640 C.3   232  ASP232      0.1805
     42  C         34.4810   36.2280  -45.7740 C.2   232  ASP232      0.2598
     43  O         34.8220   36.8820  -46.7640 O.2   232  ASP232     -0.2718
     44  CB        35.5370   35.5070  -43.6540 C.3   232  ASP232      0.1424
     45  CG        34.5550   34.4670  -43.1230 C.2   232  ASP232      0.3668
     46  OD1       35.0160   33.5480  -42.4200 O.co2 232  ASP232     -0.2456
     47  OD2       33.3360   34.5530  -43.3930 O.co2 232  ASP232     -0.2456
     48  N         33.8190   35.0800  -45.8510 N.am  233  SER233     -0.1952
     49  CA        33.4130   34.4630  -47.1000 C.3   233  SER233      0.1924
     50  C         32.7720   35.3680  -48.1520 C.2   233  SER233      0.2314
     51  O         32.8430   35.0860  -49.3530 O.2   233  SER233     -0.2863
     52  CB        32.4670   33.3070  -46.7870 C.3   233  SER233      0.2116
     53  OG        33.1720   32.1020  -46.8370 O.3   233  SER233     -0.2180
     54  N         40.2050   32.2420  -38.6490 N.3   295  LEU295     -0.1245
     55  CA        39.3230   32.3150  -39.8110 C.3   295  LEU295      0.1561
     56  C         39.7240   33.4550  -40.7490 C.2   295  LEU295      0.2260
     57  O         39.7530   33.2830  -41.9710 O.2   295  LEU295     -0.2867
     58  CB        37.8700   32.5370  -39.3630 C.3   295  LEU295      0.0270
     59  CG        37.0570   31.3540  -38.8270 C.3   295  LEU295      0.0019
     60  CD1       35.7110   31.8490  -38.2810 C.3   295  LEU295      0.0001
     61  CD2       36.8260   30.3530  -39.9390 C.3   295  LEU295      0.0001
     62  N         41.4370   24.0360  -38.2150 N.3   372  ARG372     -0.1231
     63  CA        41.0970   24.9590  -39.2790 C.3   372  ARG372      0.1679
     64  C         42.2070   24.9930  -40.3170 C.2   372  ARG372      0.2434
     65  O         43.3750   24.7700  -39.9960 O.2   372  ARG372     -0.2733
     66  CB        40.8130   26.3480  -38.7040 C.3   372  ARG372      0.0321
     67  CG        39.5560   26.3670  -37.8300 C.3   372  ARG372      0.0489
     68  CD        39.1540   27.7850  -37.4600 C.3   372  ARG372      0.2205
     69  NE        38.1280   27.8230  -36.4180 N.pl3 372  ARG372     -0.0865
     70  CZ        36.8450   27.5230  -36.6030 C.cat 372  ARG372      0.5346
     71  NH1       36.4050   27.1610  -37.8030 N.pl3 372  ARG372      0.1354
     72  NH2       36.0010   27.5810  -35.5780 N.pl3 372  ARG372      0.1354
     73  N         41.8520   25.2640  -41.5830 N.am  373  PRO373     -0.2718
     74  CA        42.8010   25.3180  -42.6920 C.3   373  PRO373      0.1535
     75  C         43.1980   26.6850  -43.2490 C.2   373  PRO373      0.2598
     76  O         44.0710   26.7430  -44.1130 O.2   373  PRO373     -0.2715
     77  CB        42.0750   24.5280  -43.7560 C.3   373  PRO373      0.0310
     78  CG        40.6750   25.1320  -43.6110 C.3   373  PRO373      0.0237
     79  CD        40.4700   25.1960  -42.0990 C.3   373  PRO373      0.0939
     80  N         42.5780   27.7690  -42.7800 N.am  374  GLU374     -0.1978
     81  CA        42.8640   29.0970  -43.3510 C.3   374  GLU374      0.1602
     82  C         44.3100   29.5570  -43.4480 C.2   374  GLU374      0.2287
     83  O         44.6770   30.2390  -44.4050 O.2   374  GLU374     -0.2864
     84  CB        42.0550   30.1910  -42.6350 C.3   374  GLU374      0.0415
     85  CG        40.5610   30.0440  -42.7740 C.3   374  GLU374      0.1163
     86  CD        39.9820   29.0350  -41.8030 C.2   374  GLU374      0.3649
     87  OE1       38.7960   28.6830  -41.9530 O.co2 374  GLU374     -0.2457
     88  OE2       40.7000   28.6030  -40.8790 O.co2 374  GLU374     -0.2457
     89  N         35.9920   19.4720  -42.4370 N.3   433  PHE433     -0.1241
     90  CA        36.9830   20.2050  -43.2190 C.3   433  PHE433      0.1605
     91  C         38.4240   19.7050  -43.0290 C.2   433  PHE433      0.2264
     92  O         39.3440   20.1510  -43.7130 O.2   433  PHE433     -0.2867
     93  CB        36.8690   21.7350  -43.0000 C.3   433  PHE433      0.0534
     94  CG        36.6960   22.1690  -41.5640 C.ar  433  PHE433     -0.0203
     95  CD1       37.7640   22.1350  -40.6640 C.ar  433  PHE433     -0.0042
     96  CD2       35.4800   22.6880  -41.1300 C.ar  433  PHE433     -0.0042
     97  CE1       37.6220   22.6200  -39.3520 C.ar  433  PHE433     -0.0003
     98  CE2       35.3210   23.1760  -39.8210 C.ar  433  PHE433     -0.0003
     99  CZ        36.3950   23.1430  -38.9330 C.ar  433  PHE433     -0.0000
    100  N         39.7620   20.3070  -46.4230 N.3   437  GLU437     -0.1245
    101  CA        40.7410   21.3860  -46.5440 C.3   437  GLU437      0.1567
    102  C         42.1670   21.2170  -46.0390 C.2   437  GLU437      0.2260
    103  O         43.1260   21.4360  -46.7780 O.2   437  GLU437     -0.2867
    104  CB        40.1480   22.6450  -45.9080 C.3   437  GLU437      0.0388
    105  CG        38.7060   22.9120  -46.3120 C.3   437  GLU437      0.1160
    106  CD        38.2620   24.3140  -45.9250 C.2   437  GLU437      0.3649
    107  OE1       37.3500   24.4390  -45.0860 O.co2 437  GLU437     -0.2457
    108  OE2       38.8390   25.2890  -46.4580 O.co2 437  GLU437     -0.2457
    109  N         34.6220   27.8240  -50.7080 N.3   466  THR466     -0.1203
    110  CA        35.1660   28.1030  -49.3970 C.3   466  THR466      0.1994
    111  C         35.5060   26.8690  -48.5310 C.2   466  THR466      0.2617
    112  O         36.1330   26.9970  -47.4820 O.2   466  THR466     -0.2717
    113  CB        34.2340   29.0800  -48.6400 C.3   466  THR466      0.1784
    114  OG1       34.9630   29.7170  -47.5920 O.3   466  THR466     -0.2211
    115  CG2       33.0440   28.3530  -48.0590 C.3   466  THR466      0.0376
    116  N         35.1110   25.6800  -48.9760 N.am  467  GLU467     -0.1979
    117  CA        35.4150   24.4520  -48.2410 C.3   467  GLU467      0.1602
    118  C         36.5160   23.6930  -49.0000 C.2   467  GLU467      0.2287
    119  O         36.6650   22.4650  -48.8600 O.2   467  GLU467     -0.2864
    120  CB        34.1580   23.5740  -48.1270 C.3   467  GLU467      0.0415
    121  CG        34.3020   22.3620  -47.2020 C.3   467  GLU467      0.1163
    122  CD        34.1010   22.7070  -45.7400 C.2   467  GLU467      0.3649
    123  OE1       33.9380   23.9030  -45.4210 O.co2 467  GLU467     -0.2457
    124  OE2       34.1070   21.7850  -44.9010 O.co2 467  GLU467     -0.2457
@<TRIPOS>BOND
     1   109   110    1
     2    32    31    2
     3   110   113    1
     4   110   111    1
     5    51    50    2
     6    24    23    2
     7   118   119    2
     8   118   117    1
     9    22    21    1
    10    22    23    1
    11    22    25    1
    12   116   111   am
    13   116   117    1
    14    31    30    1
    15    23    29   am
    16   113   115    1
    17   113   114    1
    18   111   112    2
    19    27    25    1
    20   117   120    1
    21    50    49    1
    22   120   121    1
    23    25    26    1
    24    29    30    1
    25    30    33    1
    26   121   122    1
    27    49    52    1
    28    49    48    1
    29    53    52    1
    30   103   102    2
    31    43    42    2
    32    26    28    1
    33   101   100    1
    34   101   102    1
    35   101   104    1
    36     4     3    2
    37   108   106   ar
    38    33    34    1
    39   105   106    1
    40   105   104    1
    41   106   107   ar
    42    48    42   am
    43    15    14    2
    44    42    41    1
    45     2     3    1
    46     2     1    1
    47     2     5    1
    48   122   123   ar
    49   122   124   ar
    50     8    10   ar
    51     8     6   ar
    52     3    12   am
    53    10    11   ar
    54    34    35    1
    55    14    13    1
    56     5     6    1
    57     6     7   ar
    58    12    13    1
    59    83    82    2
    60    41    44    1
    61    41    40    1
    62    11     9   ar
    63    13    16    1
    64    76    75    2
    65    35    36    1
    66    77    78    1
    67    77    74    1
    68    92    91    2
    69    44    45    1
    70    78    79    1
    71     7     9   ar
    72    82    81    1
    73    47    45   ar
    74    81    80    1
    75    81    84    1
    76    75    80   am
    77    75    74    1
    78    90    91    1
    79    90    93    1
    80    90    89    1
    81    45    46   ar
    82    93    94    1
    83    36    37    2
    84    16    17    1
    85    85    84    1
    86    85    86    1
    87    74    73    1
    88    20    18   ar
    89    79    73    1
    90    57    56    2
    91    87    86   ar
    92    37    38    1
    93    37    39    1
    94    86    88   ar
    95    17    18    1
    96    18    19   ar
    97    73    64   am
    98    94    96   ar
    99    94    95   ar
   100    96    98   ar
   101    56    55    1
   102    95    97   ar
   103    64    65    2
   104    64    63    1
   105    61    59    1
   106    98    99   ar
   107    55    58    1
   108    55    54    1
   109    58    59    1
   110    97    99   ar
   111    63    66    1
   112    63    62    1
   113    59    60    1
   114    66    67    1
   115    67    68    1
   116    71    70    1
   117    68    69    1
   118    70    69    2
   119    70    72    1
