@<TRIPOS>MOLECULE
tmp/1krfB03.pdb
 141 134 0 0 0
SMALL
GASTEIGER

@<TRIPOS>ATOM
      1  N         51.7870   28.3290   -6.2240 N.3    86  PHE86      -0.1227
      2  CA        50.3610   28.5830   -6.0400 C.3    86  PHE86       0.1736
      3  C         49.5360   27.2930   -6.0960 C.2    86  PHE86       0.2595
      4  O         48.9300   26.8860   -5.1030 O.2    86  PHE86      -0.2718
      5  CB        49.8840   29.5690   -7.1190 C.3    86  PHE86       0.0547
      6  CG        48.3910   29.7630   -7.1680 C.ar   86  PHE86      -0.0202
      7  CD1       47.6670   29.3790   -8.2940 C.ar   86  PHE86      -0.0042
      8  CD2       47.7090   30.3540   -6.1050 C.ar   86  PHE86      -0.0042
      9  CE1       46.2830   29.5830   -8.3650 C.ar   86  PHE86      -0.0003
     10  CE2       46.3270   30.5600   -6.1690 C.ar   86  PHE86      -0.0003
     11  CZ        45.6170   30.1750   -7.3000 C.ar   86  PHE86      -0.0000
     12  N         49.5280   26.6510   -7.2590 N.am   87  GLU87      -0.1979
     13  CA        48.7750   25.4190   -7.4590 C.3    87  GLU87       0.1602
     14  C         49.0980   24.3530   -6.4150 C.2    87  GLU87       0.2287
     15  O         48.2000   23.6760   -5.9060 O.2    87  GLU87      -0.2864
     16  CB        49.0530   24.8560   -8.8570 C.3    87  GLU87       0.0415
     17  CG        48.6010   25.7530   -9.9920 C.3    87  GLU87       0.1163
     18  CD        47.0940   25.8200  -10.1140 C.2    87  GLU87       0.3649
     19  OE1       46.6050   26.5970  -10.9590 O.co2  87  GLU87      -0.2457
     20  OE2       46.3940   25.0930   -9.3760 O.co2  87  GLU87      -0.2457
     21  N         47.4690   25.6720   -2.8750 N.3    90  ILE90      -0.1231
     22  CA        46.0140   25.5850   -2.7600 C.3    90  ILE90       0.1692
     23  C         45.4250   24.1850   -2.9070 C.2    90  ILE90       0.2591
     24  O         44.3480   23.9090   -2.3810 O.2    90  ILE90      -0.2718
     25  CB        45.2940   26.5210   -3.7700 C.3    90  ILE90       0.0266
     26  CG1       45.3750   25.9470   -5.1870 C.3    90  ILE90       0.0019
     27  CG2       45.9080   27.9130   -3.7150 C.3    90  ILE90       0.0020
     28  CD1       44.4660   26.6530   -6.1830 C.3    90  ILE90       0.0001
     29  N         46.1190   23.2960   -3.6080 N.am   91  ARG91      -0.1980
     30  CA        45.6060   21.9450   -3.7860 C.3    91  ARG91       0.1597
     31  C         46.2250   20.9450   -2.8130 C.2    91  ARG91       0.2287
     32  O         45.5260   20.3940   -1.9660 O.2    91  ARG91      -0.2864
     33  CB        45.8270   21.4700   -5.2270 C.3    91  ARG91       0.0334
     34  CG        45.3250   22.4530   -6.2820 C.3    91  ARG91       0.0492
     35  CD        45.0530   21.7750   -7.6230 C.3    91  ARG91       0.2205
     36  NE        44.8140   22.7570   -8.6810 N.pl3  91  ARG91      -0.0865
     37  CZ        44.2510   22.4800   -9.8550 C.cat  91  ARG91       0.5346
     38  NH1       43.8520   21.2440  -10.1320 N.pl3  91  ARG91       0.1354
     39  NH2       44.1110   23.4380  -10.7660 N.pl3  91  ARG91       0.1354
     40  N         40.4610   36.1210  -12.9130 N.3   229  GLY229     -0.1210
     41  CA        41.5550   35.1860  -12.7300 C.3   229  GLY229      0.1956
     42  C         42.8690   35.9430  -12.7160 C.2   229  GLY229      0.2612
     43  O         43.0420   36.9040  -13.4640 O.2   229  GLY229     -0.2717
     44  N         43.7940   35.5220  -11.8630 N.am  230  GLY230     -0.1956
     45  CA        45.0740   36.2020  -11.7800 C.3   230  GLY230      0.1869
     46  C         45.1110   37.1760  -10.6150 C.2   230  GLY230      0.2309
     47  O         46.1840   37.5080  -10.1140 O.2   230  GLY230     -0.2863
     48  N         41.7090   37.5480   -8.4840 N.3   232  ASP232     -0.1225
     49  CA        40.6490   36.9810   -7.6560 C.3   232  ASP232      0.1805
     50  C         40.9890   36.6050   -6.2130 C.2   232  ASP232      0.2598
     51  O         40.6420   37.3170   -5.2680 O.2   232  ASP232     -0.2718
     52  CB        40.0470   35.7540   -8.3580 C.3   232  ASP232      0.1424
     53  CG        41.0810   34.6650   -8.6460 C.2   232  ASP232      0.3668
     54  OD1       40.6830   33.5610   -9.0710 O.co2 232  ASP232     -0.2456
     55  OD2       42.2910   34.9070   -8.4500 O.co2 232  ASP232     -0.2456
     56  N         41.6670   35.4740   -6.0670 N.am  233  SER233     -0.1952
     57  CA        42.0440   34.9030   -4.7840 C.3   233  SER233      0.1924
     58  C         42.7000   35.8150   -3.7340 C.2   233  SER233      0.2314
     59  O         42.6420   35.5280   -2.5370 O.2   233  SER233     -0.2863
     60  CB        42.9290   33.6900   -5.0440 C.3   233  SER233      0.2116
     61  OG        42.7940   32.7550   -4.0000 O.3   233  SER233     -0.2180
     62  N         35.3440   32.6280  -13.1870 N.3   295  LEU295     -0.1245
     63  CA        36.2400   32.7280  -12.0360 C.3   295  LEU295      0.1561
     64  C         35.8600   33.8910  -11.1240 C.2   295  LEU295      0.2260
     65  O         35.9700   33.7920   -9.9010 O.2   295  LEU295     -0.2867
     66  CB        37.6860   32.9380  -12.5010 C.3   295  LEU295      0.0270
     67  CG        38.4100   31.7780  -13.1830 C.3   295  LEU295      0.0019
     68  CD1       39.7290   32.2590  -13.7930 C.3   295  LEU295      0.0001
     69  CD2       38.6490   30.6850  -12.1650 C.3   295  LEU295      0.0001
     70  N         34.2250   24.3650  -13.4920 N.3   372  ARG372     -0.1231
     71  CA        34.5450   25.3380  -12.4540 C.3   372  ARG372      0.1679
     72  C         33.4460   25.4050  -11.3960 C.2   372  ARG372      0.2434
     73  O         32.2720   25.1630  -11.6840 O.2   372  ARG372     -0.2733
     74  CB        34.8230   26.7100  -13.0790 C.3   372  ARG372      0.0321
     75  CG        36.1040   26.7330  -13.9280 C.3   372  ARG372      0.0489
     76  CD        36.4700   28.1430  -14.3620 C.3   372  ARG372      0.2205
     77  NE        37.5230   28.1730  -15.3770 N.pl3 372  ARG372     -0.0865
     78  CZ        38.7760   27.7700  -15.1850 C.cat 372  ARG372      0.5346
     79  NH1       39.1600   27.2960  -14.0060 N.pl3 372  ARG372      0.1354
     80  NH2       39.6520   27.8430  -16.1780 N.pl3 372  ARG372      0.1354
     81  N         33.8150   25.7430  -10.1510 N.am  373  PRO373     -0.2718
     82  CA        32.8580   25.8150   -9.0470 C.3   373  PRO373      0.1535
     83  C         32.4030   27.1660   -8.5220 C.2   373  PRO373      0.2598
     84  O         31.4750   27.2170   -7.7220 O.2   373  PRO373     -0.2715
     85  CB        33.5860   25.0520   -7.9610 C.3   373  PRO373      0.0310
     86  CG        34.9870   25.6510   -8.1070 C.3   373  PRO373      0.0237
     87  CD        35.1970   25.7410   -9.6310 C.3   373  PRO373      0.0939
     88  N         33.0430   28.2470   -8.9500 N.am  374  GLU374     -0.1978
     89  CA        32.7200   29.5810   -8.4380 C.3   374  GLU374      0.1602
     90  C         31.2550   29.9630   -8.2760 C.2   374  GLU374      0.2287
     91  O         30.8750   30.5710   -7.2650 O.2   374  GLU374     -0.2864
     92  CB        33.4120   30.6560   -9.2730 C.3   374  GLU374      0.0415
     93  CG        34.9160   30.5680   -9.2320 C.3   374  GLU374      0.1163
     94  CD        35.4660   29.4810  -10.1350 C.2   374  GLU374      0.3649
     95  OE1       36.6460   29.1260   -9.9600 O.co2 374  GLU374     -0.2457
     96  OE2       34.7350   28.9930  -11.0230 O.co2 374  GLU374     -0.2457
     97  N         29.6710   27.8160   -5.6910 N.3   377  GLU377     -0.1245
     98  CA        30.2990   28.2420   -4.4500 C.3   377  GLU377      0.1567
     99  C         29.5570   29.4330   -3.8460 C.2   377  GLU377      0.2260
    100  O         29.2120   29.4220   -2.6630 O.2   377  GLU377     -0.2867
    101  CB        31.7570   28.6260   -4.7030 C.3   377  GLU377      0.0388
    102  CG        32.4380   29.3180   -3.5280 C.3   377  GLU377      0.1160
    103  CD        33.8620   29.7450   -3.8520 C.2   377  GLU377      0.3649
    104  OE1       34.5040   30.3910   -2.9930 O.co2 377  GLU377     -0.2457
    105  OE2       34.3350   29.4330   -4.9670 O.co2 377  GLU377     -0.2457
    106  N         39.7470   19.8980   -9.1590 N.3   433  PHE433     -0.1241
    107  CA        38.7700   20.6770   -8.4060 C.3   433  PHE433      0.1605
    108  C         37.3270   20.2050   -8.5940 C.2   433  PHE433      0.2264
    109  O         36.3960   20.7510   -7.9960 O.2   433  PHE433     -0.2867
    110  CB        38.9180   22.1930   -8.6640 C.3   433  PHE433      0.0534
    111  CG        39.0070   22.5940  -10.1180 C.ar  433  PHE433     -0.0203
    112  CD1       37.8920   22.5470  -10.9460 C.ar  433  PHE433     -0.0042
    113  CD2       40.1920   23.1220  -10.6290 C.ar  433  PHE433     -0.0042
    114  CE1       37.9500   23.0290  -12.2590 C.ar  433  PHE433     -0.0003
    115  CE2       40.2610   23.6080  -11.9450 C.ar  433  PHE433     -0.0003
    116  CZ        39.1380   23.5620  -12.7560 C.ar  433  PHE433     -0.0000
    117  N         35.9190   20.8700   -5.1950 N.3   437  GLU437     -0.1245
    118  CA        34.9550   21.9590   -5.1150 C.3   437  GLU437      0.1567
    119  C         33.5460   21.7190   -5.6320 C.2   437  GLU437      0.2260
    120  O         32.5780   21.8620   -4.8860 O.2   437  GLU437     -0.2867
    121  CB        35.5420   23.1930   -5.7920 C.3   437  GLU437      0.0388
    122  CG        36.9320   23.5260   -5.3020 C.3   437  GLU437      0.1160
    123  CD        37.3610   24.9190   -5.6980 C.2   437  GLU437      0.3649
    124  OE1       38.3090   25.0420   -6.5020 O.co2 437  GLU437     -0.2457
    125  OE2       36.7410   25.8880   -5.2060 O.co2 437  GLU437     -0.2457
    126  N         40.9360   28.4450   -0.9850 N.3   466  THR466     -0.1203
    127  CA        40.4100   28.7070   -2.3180 C.3   466  THR466      0.1994
    128  C         40.0690   27.4720   -3.1670 C.2   466  THR466      0.2617
    129  O         39.4980   27.5960   -4.2480 O.2   466  THR466     -0.2717
    130  CB        41.3810   29.6320   -3.0930 C.3   466  THR466      0.1784
    131  OG1       40.6540   30.3690   -4.0780 O.3   466  THR466     -0.2211
    132  CG2       42.4850   28.8190   -3.7590 C.3   466  THR466      0.0376
    133  N         40.4200   26.2850   -2.6860 N.am  467  GLU467     -0.1979
    134  CA        40.1280   25.0560   -3.4160 C.3   467  GLU467      0.1602
    135  C         39.0320   24.2820   -2.6670 C.2   467  GLU467      0.2287
    136  O         38.8920   23.0640   -2.8150 O.2   467  GLU467     -0.2864
    137  CB        41.3950   24.1950   -3.5350 C.3   467  GLU467      0.0415
    138  CG        41.2760   23.0000   -4.4820 C.3   467  GLU467      0.1163
    139  CD        41.6440   23.3270   -5.9280 C.2   467  GLU467      0.3649
    140  OE1       41.7490   24.5260   -6.2750 O.co2 467  GLU467     -0.2457
    141  OE2       41.8210   22.3780   -6.7220 O.co2 467  GLU467     -0.2457
@<TRIPOS>BOND
     1    80    78    1
     2    77    78    2
     3    77    76    1
     4    78    79    1
     5    76    75    1
     6    75    74    1
     7    68    67    1
     8    70    71    1
     9    43    42    2
    10    62    63    1
    11    67    66    1
    12    67    69    1
    13    74    71    1
    14    40    41    1
    15   116   114   ar
    16   116   115   ar
    17    41    42    1
    18    42    44   am
    19    66    63    1
    20    71    72    1
    21   114   112   ar
    22    63    64    1
    23   115   113   ar
    24    44    45    1
    25    45    46    1
    26    73    72    2
    27    72    81   am
    28    64    65    2
    29    96    94   ar
    30    19    18   ar
    31   112   111   ar
    32    39    37    1
    33   113   111   ar
    34    46    47    2
    35    81    87    1
    36    81    82    1
    37    94    95   ar
    38    94    93    1
    39    38    37    1
    40   111   110    1
    41    18    17    1
    42    18    20   ar
    43    17    16    1
    44    37    36    2
    45    87    86    1
    46    92    93    1
    47    92    89    1
    48   106   107    1
    49    54    53   ar
    50    82    83    1
    51    82    85    1
    52    88    83   am
    53    88    89    1
    54    16    13    1
    55    36    35    1
    56   110   107    1
    57    53    55   ar
    58    53    52    1
    59   108   107    1
    60   108   109    2
    61    83    84    2
    62    48    49    1
    63    89    90    1
    64     9     7   ar
    65     9    11   ar
    66    52    49    1
    67     7     6   ar
    68    90    91    2
    69    86    85    1
    70    49    50    1
    71    35    34    1
    72    13    12    1
    73    13    14    1
    74    11    10   ar
    75    12     3   am
    76     6     5    1
    77     6     8   ar
    78     5     2    1
    79   141   139   ar
    80   124   123   ar
    81    14    15    2
    82    34    33    1
    83   140   139   ar
    84     1     2    1
    85    50    56   am
    86    50    51    2
    87    28    26    1
    88    10     8   ar
    89     3     2    1
    90     3     4    2
    91    56    57    1
    92   139   138    1
    93   121   122    1
    94   121   118    1
    95   123   122    1
    96   123   125   ar
    97    97    98    1
    98   119   118    1
    99   119   120    2
   100    33    30    1
   101   117   118    1
   102    26    25    1
   103    60    57    1
   104    60    61    1
   105   105   103   ar
   106    57    58    1
   107   101    98    1
   108   101   102    1
   109   138   137    1
   110    98    99    1
   111   129   128    2
   112   131   130    1
   113   103   102    1
   114   103   104   ar
   115    99   100    2
   116    30    29    1
   117    30    31    1
   118    25    27    1
   119    25    22    1
   120   132   130    1
   121    58    59    2
   122    29    23   am
   123   137   134    1
   124   134   133    1
   125   134   135    1
   126   128   133   am
   127   128   127    1
   128   130   127    1
   129    23    22    1
   130    23    24    2
   131    21    22    1
   132   136   135    2
   133    31    32    2
   134   127   126    1
