@<TRIPOS>MOLECULE
tmp/1kroA01.pdb
 109 109 0 0 0
SMALL
GASTEIGER

@<TRIPOS>ATOM
      1  N         32.9130   36.5910   65.8140 N.3   112  ASN112     -0.1225
      2  CA        33.0900   37.5550   64.7470 C.3   112  ASN112      0.1785
      3  C         31.9890   38.6090   64.7620 C.2   112  ASN112      0.2597
      4  O         31.0010   38.4870   65.4820 O.2   112  ASN112     -0.2718
      5  CB        33.0980   36.8160   63.4050 C.3   112  ASN112      0.1169
      6  CG        33.5740   37.6800   62.2660 C.2   112  ASN112      0.2627
      7  OD1       34.6500   38.2710   62.3320 O.2   112  ASN112     -0.2716
      8  ND2       32.7770   37.7550   61.2050 N.am  112  ASN112     -0.0877
      9  N         32.1940   39.6550   63.9720 N.am  113  ALA113     -0.1966
     10  CA        31.2350   40.7460   63.8270 C.3   113  ALA113      0.1728
     11  C         31.4650   41.2190   62.4040 C.2   113  ALA113      0.2616
     12  O         32.5640   41.0700   61.8850 O.2   113  ALA113     -0.2715
     13  CB        31.5390   41.8640   64.8120 C.3   113  ALA113      0.0334
     14  N         30.4450   41.7720   61.7600 N.am  114  PHE114     -0.1960
     15  CA        30.6280   42.2260   60.3920 C.3   114  PHE114      0.1771
     16  C         29.5290   43.1390   59.8850 C.2   114  PHE114      0.2619
     17  O         28.4620   43.2530   60.4890 O.2   114  PHE114     -0.2715
     18  CB        30.7310   41.0230   59.4450 C.3   114  PHE114      0.0574
     19  CG        29.5370   40.0970   59.4940 C.ar  114  PHE114     -0.0200
     20  CD1       29.4530   39.0940   60.4570 C.ar  114  PHE114     -0.0042
     21  CD2       28.4970   40.2280   58.5770 C.ar  114  PHE114     -0.0042
     22  CE1       28.3540   38.2330   60.5060 C.ar  114  PHE114     -0.0003
     23  CE2       27.3940   39.3750   58.6170 C.ar  114  PHE114     -0.0003
     24  CZ        27.3220   38.3750   59.5820 C.ar  114  PHE114     -0.0000
     25  N         29.8290   43.8010   58.7720 N.am  115  TRP115     -0.1974
     26  CA        28.8890   44.6710   58.0780 C.3   115  TRP115      0.1640
     27  C         28.5180   43.8060   56.8800 C.2   115  TRP115      0.2290
     28  O         29.4040   43.3440   56.1520 O.2   115  TRP115     -0.2864
     29  CB        29.5810   45.9570   57.6210 C.3   115  TRP115      0.0576
     30  CG        28.8210   46.7160   56.5720 C.ar  115  TRP115      0.0006
     31  CD1       29.0920   46.7600   55.2360 C.ar  115  TRP115      0.0946
     32  CD2       27.6630   47.5350   56.7750 C.ar  115  TRP115      0.0152
     33  NE1       28.1760   47.5580   54.5900 N.ar  115  TRP115     -0.2442
     34  CE2       27.2870   48.0460   55.5120 C.ar  115  TRP115      0.0810
     35  CE3       26.9060   47.8890   57.9010 C.ar  115  TRP115      0.0012
     36  CZ2       26.1840   48.8930   55.3440 C.ar  115  TRP115      0.0191
     37  CZ3       25.8110   48.7300   57.7320 C.ar  115  TRP115      0.0001
     38  CH2       25.4620   49.2210   56.4620 C.ar  115  TRP115      0.0015
     39  N         34.8630   50.0370   63.5480 N.3   142  HIS142     -0.1226
     40  CA        35.4850   49.3260   62.4320 C.3   142  HIS142      0.1752
     41  C         34.3750   48.8870   61.4730 C.2   142  HIS142      0.2595
     42  O         34.4630   49.1060   60.2640 O.2   142  HIS142     -0.2718
     43  CB        36.2460   48.0950   62.9490 C.3   142  HIS142      0.0759
     44  CG        36.8190   47.2260   61.8690 C.ar  142  HIS142      0.0818
     45  ND1       38.1640   47.2000   61.5670 N.ar  142  HIS142     -0.2268
     46  CD2       36.2290   46.3410   61.0310 C.ar  142  HIS142      0.1154
     47  CE1       38.3780   46.3330   60.5920 C.ar  142  HIS142      0.1986
     48  NE2       37.2190   45.7980   60.2480 N.ar  142  HIS142     -0.2212
     49  N         33.3200   48.2870   62.0200 N.am  143  GLU143     -0.1979
     50  CA        32.2100   47.8160   61.1920 C.3   143  GLU143      0.1602
     51  C         31.4430   48.9390   60.5010 C.2   143  GLU143      0.2287
     52  O         31.1270   48.8360   59.3140 O.2   143  GLU143     -0.2864
     53  CB        31.2120   46.9950   62.0140 C.3   143  GLU143      0.0415
     54  CG        31.7880   45.8070   62.7730 C.3   143  GLU143      0.1163
     55  CD        32.6620   44.9030   61.9260 C.2   143  GLU143      0.3649
     56  OE1       32.5570   44.9240   60.6820 O.co2 143  GLU143     -0.2457
     57  OE2       33.4530   44.1510   62.5240 O.co2 143  GLU143     -0.2457
     58  N         33.0620   50.2860   57.4820 N.3   146  HIS146     -0.1241
     59  CA        32.9500   49.4840   56.2620 C.3   146  HIS146      0.1621
     60  C         31.7600   50.0140   55.4660 C.2   146  HIS146      0.2264
     61  O         31.7790   50.0140   54.2400 O.2   146  HIS146     -0.2867
     62  CB        32.7280   47.9980   56.5670 C.3   146  HIS146      0.0745
     63  CG        33.9940   47.2300   56.7970 C.ar  146  HIS146      0.0817
     64  ND1       35.0520   47.2590   55.9130 N.ar  146  HIS146     -0.2268
     65  CD2       34.3600   46.3920   57.7960 C.ar  146  HIS146      0.1154
     66  CE1       36.0160   46.4700   56.3580 C.ar  146  HIS146      0.1986
     67  NE2       35.6210   45.9330   57.4980 N.ar  146  HIS146     -0.2212
     68  N         36.6750   43.9450   48.2490 N.3   157  TYR157     -0.1241
     69  CA        37.2290   43.1750   49.3590 C.3   157  TYR157      0.1605
     70  C         38.1240   42.0190   48.9390 C.2   157  TYR157      0.2264
     71  O         37.8520   40.8570   49.2550 O.2   157  TYR157     -0.2867
     72  CB        36.0920   42.6490   50.2330 C.3   157  TYR157      0.0534
     73  CG        36.4640   42.5050   51.6890 C.ar  157  TYR157     -0.0201
     74  CD1       36.8150   43.6220   52.4490 C.ar  157  TYR157     -0.0009
     75  CD2       36.4500   41.2590   52.3120 C.ar  157  TYR157     -0.0009
     76  CE1       37.1400   43.5010   53.7980 C.ar  157  TYR157      0.0417
     77  CE2       36.7740   41.1260   53.6590 C.ar  157  TYR157      0.0417
     78  CZ        37.1160   42.2500   54.3960 C.ar  157  TYR157      0.1957
     79  OH        37.4200   42.1240   55.7290 O.3   157  TYR157     -0.2866
     80  N         40.2580   47.1990   54.7670 N.3   166  GLU166     -0.1245
     81  CA        40.4510   46.7840   56.1500 C.3   166  GLU166      0.1567
     82  C         41.2040   47.8130   56.9890 C.2   166  GLU166      0.2260
     83  O         40.8100   48.1100   58.1180 O.2   166  GLU166     -0.2867
     84  CB        41.1900   45.4430   56.2000 C.3   166  GLU166      0.0388
     85  CG        40.2610   44.2470   56.2360 C.3   166  GLU166      0.1160
     86  CD        39.3100   44.3190   57.4150 C.2   166  GLU166      0.3649
     87  OE1       39.7910   44.3790   58.5670 O.co2 166  GLU166     -0.2457
     88  OE2       38.0870   44.3250   57.1880 O.co2 166  GLU166     -0.2457
     89  N         44.9230   42.7070   66.5180 N.3   203  ARG203     -0.1245
     90  CA        45.8940   43.3420   65.6360 C.3   203  ARG203      0.1563
     91  C         46.4950   44.5410   66.3510 C.2   203  ARG203      0.2260
     92  O         45.9170   45.0640   67.3040 O.2   203  ARG203     -0.2867
     93  CB        45.2280   43.8420   64.3480 C.3   203  ARG203      0.0307
     94  CG        44.7570   42.7660   63.3960 C.3   203  ARG203      0.0489
     95  CD        44.3070   43.3940   62.0850 C.3   203  ARG203      0.2205
     96  NE        43.0460   44.1300   62.1980 N.pl3 203  ARG203     -0.0865
     97  CZ        41.8480   43.5550   62.2610 C.cat 203  ARG203      0.5346
     98  NH1       41.7400   42.2310   62.2300 N.pl3 203  ARG203      0.1354
     99  NH2       40.7530   44.3020   62.3190 N.pl3 203  ARG203      0.1354
    100  N         43.1920   40.9370   55.9400 N.3   231  HIS231     -0.1241
    101  CA        43.3920   41.2340   57.3590 C.3   231  HIS231      0.1621
    102  C         44.8640   41.1260   57.7360 C.2   231  HIS231      0.2264
    103  O         45.2540   41.4580   58.8560 O.2   231  HIS231     -0.2867
    104  CB        42.5880   40.2800   58.2480 C.3   231  HIS231      0.0745
    105  CG        41.1060   40.4070   58.0900 C.ar  231  HIS231      0.0817
    106  ND1       40.3770   39.6090   57.2340 N.ar  231  HIS231     -0.2268
    107  CD2       40.2190   41.2530   58.6650 C.ar  231  HIS231      0.1154
    108  CE1       39.1040   39.9590   57.2880 C.ar  231  HIS231      0.1986
    109  NE2       38.9810   40.9530   58.1480 N.ar  231  HIS231     -0.2212
@<TRIPOS>BOND
     1    68    69    1
     2    70    71    2
     3    70    69    1
     4    69    72    1
     5    72    73    1
     6    73    75   ar
     7    73    74   ar
     8    75    77   ar
     9    74    76   ar
    10    77    78   ar
    11    76    78   ar
    12    61    60    2
    13    78    79    1
    14    33    31   ar
    15    33    34   ar
    16    80    81    1
    17    31    30   ar
    18    36    34   ar
    19    36    38   ar
    20    60    59    1
    21    34    32   ar
    22    64    66   ar
    23    64    63   ar
    24   100   101    1
    25    81    84    1
    26    81    82    1
    27    28    27    2
    28    84    85    1
    29    85    86    1
    30    59    62    1
    31    59    58    1
    32    66    67   ar
    33    38    37   ar
    34    62    63    1
    35    30    32   ar
    36    30    29    1
    37    32    35   ar
    38    63    65   ar
    39    27    26    1
    40    82    83    2
    41    88    86   ar
    42   106   108   ar
    43   106   105   ar
    44   108   109   ar
    45   101   102    1
    46   101   104    1
    47    86    87   ar
    48    67    65   ar
    49    29    26    1
    50    37    35   ar
    51   102   103    2
    52    26    25    1
    53   105   104    1
    54   105   107   ar
    55   109   107   ar
    56    21    23   ar
    57    21    19   ar
    58    23    24   ar
    59    25    16   am
    60    52    51    2
    61    18    19    1
    62    18    15    1
    63    19    20   ar
    64    24    22   ar
    65    16    15    1
    66    16    17    2
    67    48    47   ar
    68    48    46   ar
    69    42    41    2
    70    15    14    1
    71    20    22   ar
    72    51    50    1
    73    47    45   ar
    74    56    55   ar
    75    46    44   ar
    76    50    53    1
    77    50    49    1
    78     8     6   am
    79    41    49   am
    80    41    40    1
    81    45    44   ar
    82    14    11   am
    83    44    43    1
    84    12    11    2
    85    55    57   ar
    86    55    54    1
    87    53    54    1
    88    95    96    1
    89    95    94    1
    90    96    97    2
    91    98    97    1
    92    97    99    1
    93     6     7    2
    94     6     5    1
    95    11    10    1
    96    40    43    1
    97    40    39    1
    98    94    93    1
    99     5     2    1
   100    10     9    1
   101    10    13    1
   102     9     3   am
   103    93    90    1
   104     2     3    1
   105     2     1    1
   106     3     4    2
   107    90    91    1
   108    90    89    1
   109    91    92    2
