@<TRIPOS>MOLECULE
tmp/1kruC00.pdb
 131 123 0 0 0
SMALL
GASTEIGER

@<TRIPOS>ATOM
      1  N        -27.9370  -16.4040    4.7470 N.3    90  VAL90      -0.1245
      2  CA       -27.0890  -16.4310    5.9250 C.3    90  VAL90       0.1561
      3  C        -27.2630  -15.0490    6.5460 C.2    90  VAL90       0.2260
      4  O        -26.5440  -14.0950    6.2220 O.2    90  VAL90      -0.2867
      5  CB       -25.6210  -16.6940    5.5500 C.3    90  VAL90       0.0252
      6  CG1      -24.7890  -16.8760    6.8090 C.3    90  VAL90       0.0019
      7  CG2      -25.5350  -17.9530    4.6890 C.3    90  VAL90       0.0019
      8  N        -28.1560  -17.7740   -3.1920 N.3   108  THR108     -0.1218
      9  CA       -27.5100  -17.6700   -1.8940 C.3   108  THR108      0.1862
     10  C        -27.2270  -16.2290   -1.5010 C.2   108  THR108      0.2287
     11  O        -26.5130  -15.5250   -2.2000 O.2   108  THR108     -0.2866
     12  CB       -26.1880  -18.4510   -1.8780 C.3   108  THR108      0.1770
     13  OG1      -26.4670  -19.8430   -2.0480 O.3   108  THR108     -0.2211
     14  CG2      -25.4550  -18.2510   -0.5550 C.3   108  THR108      0.0375
     15  N        -25.7660  -13.8110    1.5820 N.3   110  SER110     -0.1217
     16  CA       -24.9670  -13.8570    2.8010 C.3   110  SER110      0.1889
     17  C        -24.5360  -12.4660    3.2380 C.2   110  SER110      0.2288
     18  O        -23.8990  -11.7490    2.4750 O.2   110  SER110     -0.2866
     19  CB       -23.7250  -14.7200    2.6140 C.3   110  SER110      0.2089
     20  OG       -22.9100  -14.6330    3.7670 O.3   110  SER110     -0.2183
     21  N        -22.8420  -12.2260    5.9890 N.3   112  THR112     -0.1203
     22  CA       -21.6050  -12.5890    6.6580 C.3   112  THR112      0.1994
     23  C        -20.4620  -12.9900    5.7400 C.2   112  THR112      0.2618
     24  O        -20.6590  -13.5920    4.6810 O.2   112  THR112     -0.2717
     25  CB       -21.8410  -13.7420    7.6340 C.3   112  THR112      0.1784
     26  OG1      -22.9330  -13.4080    8.4980 O.3   112  THR112     -0.2211
     27  CG2      -20.5990  -14.0060    8.4660 C.3   112  THR112      0.0376
     28  N        -19.2570  -12.6440    6.1780 N.am  113  GLY113     -0.1942
     29  CA       -18.0420  -12.9620    5.4530 C.3   113  GLY113      0.2014
     30  C        -16.9550  -13.1670    6.4890 C.2   113  GLY113      0.2638
     31  O        -17.1800  -12.9320    7.6760 O.2   113  GLY113     -0.2714
     32  N        -15.7810  -13.6060    6.0630 N.am  114  HIS114     -0.1973
     33  CA       -14.7010  -13.8140    7.0130 C.3   114  HIS114      0.1656
     34  C        -13.4770  -13.0300    6.5980 C.2   114  HIS114      0.2291
     35  O        -13.2820  -12.7470    5.4120 O.2   114  HIS114     -0.2864
     36  CB       -14.3430  -15.3010    7.1150 C.3   114  HIS114      0.0771
     37  CG       -15.4220  -16.1430    7.7160 C.ar  114  HIS114      0.0820
     38  ND1      -15.8510  -15.9880    9.0170 N.ar  114  HIS114     -0.2267
     39  CD2      -16.1700  -17.1400    7.1890 C.ar  114  HIS114      0.1154
     40  CE1      -16.8190  -16.8520    9.2640 C.ar  114  HIS114      0.1986
     41  NE2      -17.0330  -17.5640    8.1710 N.ar  114  HIS114     -0.2212
     42  N         -9.9890  -12.0580    5.3050 N.3   116  VAL116     -0.1245
     43  CA        -9.1770  -12.7330    4.3160 C.3   116  VAL116      0.1561
     44  C         -7.9170  -13.3000    4.9750 C.2   116  VAL116      0.2260
     45  O         -7.5320  -14.4330    4.7000 O.2   116  VAL116     -0.2867
     46  CB        -8.8080  -11.7550    3.1760 C.3   116  VAL116      0.0252
     47  CG1       -7.4350  -12.0890    2.6180 C.3   116  VAL116      0.0019
     48  CG2       -9.8680  -11.8110    2.0910 C.3   116  VAL116      0.0019
     49  N        -17.8560  -11.1110   10.0650 N.3   127  TYR127     -0.1241
     50  CA       -18.4070   -9.7750    9.9770 C.3   127  TYR127      0.1605
     51  C        -19.7450   -9.8470    9.2670 C.2   127  TYR127      0.2264
     52  O        -19.9640  -10.7130    8.4330 O.2   127  TYR127     -0.2867
     53  CB       -17.4490   -8.8270    9.2300 C.3   127  TYR127      0.0534
     54  CG       -17.0010   -9.2690    7.8450 C.ar  127  TYR127     -0.0201
     55  CD1      -17.8210   -9.0950    6.7220 C.ar  127  TYR127     -0.0009
     56  CD2      -15.7350   -9.8290    7.6500 C.ar  127  TYR127     -0.0009
     57  CE1      -17.3870   -9.4730    5.4420 C.ar  127  TYR127      0.0417
     58  CE2      -15.2970  -10.2060    6.3780 C.ar  127  TYR127      0.0417
     59  CZ       -16.1240  -10.0280    5.2820 C.ar  127  TYR127      0.1957
     60  OH       -15.6810  -10.4260    4.0360 O.3   127  TYR127     -0.2866
     61  N        -25.3190  -15.3560   -6.1530 N.3   144  VAL144     -0.1245
     62  CA       -24.7860  -15.1990   -4.8070 C.3   144  VAL144      0.1561
     63  C        -24.6300  -13.7040   -4.5000 C.2   144  VAL144      0.2260
     64  O        -23.8710  -13.0040   -5.1590 O.2   144  VAL144     -0.2867
     65  CB       -23.4140  -15.8590   -4.6430 C.3   144  VAL144      0.0252
     66  CG1      -22.8800  -15.5420   -3.2610 C.3   144  VAL144      0.0019
     67  CG2      -23.5110  -17.3590   -4.8230 C.3   144  VAL144      0.0019
     68  N        -23.3050  -11.0120   -1.9890 N.3   146  ASN146     -0.1226
     69  CA       -22.3700  -10.8610   -0.8780 C.3   146  ASN146      0.1770
     70  C        -22.7550   -9.8260    0.1730 C.2   146  ASN146      0.2439
     71  O        -23.7210   -9.0790    0.0050 O.2   146  ASN146     -0.2733
     72  CB       -20.9790  -10.5870   -1.4340 C.3   146  ASN146      0.1168
     73  CG       -20.2580  -11.8550   -1.7810 C.2   146  ASN146      0.2627
     74  OD1      -19.2640  -11.8420   -2.5030 O.2   146  ASN146     -0.2716
     75  ND2      -20.7580  -12.9760   -1.2630 N.am  146  ASN146     -0.0877
     76  N        -21.9800   -9.7460    1.2650 N.am  147  PRO147     -0.2729
     77  CA       -22.3080   -8.7840    2.3190 C.3   147  PRO147      0.1401
     78  C        -22.3430   -7.3100    1.9340 C.2   147  PRO147      0.2269
     79  O        -21.5970   -6.8630    1.0670 O.2   147  PRO147     -0.2865
     80  CB       -21.2680   -9.0780    3.4090 C.3   147  PRO147      0.0296
     81  CG       -20.7210  -10.4050    3.0720 C.3   147  PRO147      0.0237
     82  CD       -20.7580  -10.4950    1.5910 C.3   147  PRO147      0.0939
     83  N        -22.2270  -13.3000   -9.4030 N.3   162  ILE162     -0.1245
     84  CA       -21.7020  -13.1350   -8.0490 C.3   162  ILE162      0.1561
     85  C        -21.6570  -11.6400   -7.7620 C.2   162  ILE162      0.2260
     86  O        -20.7220  -10.9440   -8.1580 O.2   162  ILE162     -0.2867
     87  CB       -20.2720  -13.7180   -7.9230 C.3   162  ILE162      0.0252
     88  CG1      -20.2900  -15.2170   -8.2290 C.3   162  ILE162      0.0019
     89  CG2      -19.7140  -13.4510   -6.5440 C.3   162  ILE162      0.0019
     90  CD1      -21.4080  -15.9840   -7.5310 C.3   162  ILE162      0.0001
     91  N        -20.9800   -8.4810   -5.7960 N.3   164  THR164     -0.1203
     92  CA       -20.0590   -8.0340   -4.7690 C.3   164  THR164      0.1994
     93  C        -20.1160   -6.5350   -4.5700 C.2   164  THR164      0.2617
     94  O        -19.5060   -6.0100   -3.6510 O.2   164  THR164     -0.2717
     95  CB       -18.6410   -8.3620   -5.1550 C.3   164  THR164      0.1784
     96  OG1      -18.4050   -7.8930   -6.4870 O.3   164  THR164     -0.2211
     97  CG2      -18.4130   -9.8500   -5.1100 C.3   164  THR164      0.0376
     98  N        -20.8230   -5.8410   -5.4470 N.am  165  LYS165     -0.1979
     99  CA       -20.9310   -4.3940   -5.3640 C.3   165  LYS165      0.1596
    100  C        -22.3800   -4.0220   -5.5830 C.2   165  LYS165      0.2287
    101  O        -23.1070   -4.7590   -6.2380 O.2   165  LYS165     -0.2864
    102  CB       -20.0460   -3.7590   -6.4380 C.3   165  LYS165      0.0298
    103  CG       -18.6010   -3.5970   -6.0020 C.3   165  LYS165      0.0038
    104  CD       -17.6690   -3.2860   -7.1520 C.3   165  LYS165      0.0206
    105  CE       -16.3210   -2.8210   -6.6270 C.3   165  LYS165      0.1093
    106  NZ       -15.3210   -2.6300   -7.7140 N.3   165  LYS165     -0.1314
    107  N        -19.4860  -12.6530  -13.4590 N.3   176  VAL176     -0.1231
    108  CA       -18.6790  -13.0750  -12.3270 C.3   176  VAL176      0.1678
    109  C        -17.3660  -12.3010  -12.4300 C.2   176  VAL176      0.2434
    110  O        -16.4650  -12.6840  -13.1750 O.2   176  VAL176     -0.2733
    111  CB       -18.4050  -14.6100  -12.3710 C.3   176  VAL176      0.0265
    112  CG1      -17.8060  -15.0910  -11.0510 C.3   176  VAL176      0.0020
    113  CG2      -19.6880  -15.3590  -12.6580 C.3   176  VAL176      0.0020
    114  N        -17.2530  -11.1840  -11.6960 N.am  177  PRO177     -0.2729
    115  CA       -18.3050  -10.6740  -10.8110 C.3   177  PRO177      0.1401
    116  C        -19.3880   -9.9370  -11.5870 C.2   177  PRO177      0.2269
    117  O        -19.2520   -9.6910  -12.7800 O.2   177  PRO177     -0.2865
    118  CB       -17.5520   -9.7670   -9.8550 C.3   177  PRO177      0.0296
    119  CG       -16.3770   -9.3010  -10.6360 C.3   177  PRO177      0.0237
    120  CD       -16.0660  -10.3150  -11.6950 C.3   177  PRO177      0.0939
    121  N        -21.8880   -7.1220  -13.1650 N.3   179  ARG179     -0.1245
    122  CA       -21.7140   -5.8000  -13.7260 C.3   179  ARG179      0.1563
    123  C        -22.9500   -5.3890  -14.4820 C.2   179  ARG179      0.2260
    124  O        -23.6320   -6.2140  -15.0780 O.2   179  ARG179     -0.2867
    125  CB       -20.5120   -5.7200  -14.6770 C.3   179  ARG179      0.0307
    126  CG       -19.8720   -7.0320  -15.0550 C.3   179  ARG179      0.0489
    127  CD       -18.3710   -6.8350  -15.1700 C.3   179  ARG179      0.2205
    128  NE       -17.8490   -6.0690  -14.0370 N.pl3 179  ARG179     -0.0865
    129  CZ       -16.6020   -6.1630  -13.5730 C.cat 179  ARG179      0.5346
    130  NH1      -15.7320   -6.9950  -14.1440 N.pl3 179  ARG179      0.1354
    131  NH2      -16.2230   -5.4290  -12.5320 N.pl3 179  ARG179      0.1354
@<TRIPOS>BOND
     1   127   126    1
     2   127   128    1
     3   124   123    2
     4   126   125    1
     5   125   122    1
     6   123   122    1
     7   130   129    1
     8   128   129    2
     9   122   121    1
    10   129   131    1
    11   107   108    1
    12   110   109    2
    13   117   116    2
    14   113   111    1
    15   109   108    1
    16   109   114   am
    17   111   108    1
    18   111   112    1
    19   114   120    1
    20   114   115    1
    21   120   119    1
    22   116   115    1
    23   115   118    1
    24   119   118    1
    25    83    84    1
    26    88    87    1
    27    88    90    1
    28    86    85    2
    29    84    87    1
    30    84    85    1
    31    87    89    1
    32   106   105    1
    33   104   105    1
    34   104   103    1
    35    96    95    1
    36   102   103    1
    37   102    99    1
    38   101   100    2
    39    61    62    1
    40    91    92    1
    41   100    99    1
    42    98    99    1
    43    98    93   am
    44    64    63    2
    45    95    97    1
    46    95    92    1
    47    67    65    1
    48    62    65    1
    49    62    63    1
    50    92    93    1
    51    65    66    1
    52    93    94    2
    53     8     9    1
    54    74    73    2
    55    11    10    2
    56    13    12    1
    57    68    69    1
    58     9    12    1
    59     9    10    1
    60    12    14    1
    61    73    72    1
    62    73    75   am
    63    72    69    1
    64    69    70    1
    65    71    70    2
    66    70    76   am
    67    79    78    2
    68    76    82    1
    69    76    77    1
    70    15    16    1
    71    82    81    1
    72    78    77    1
    73    48    46    1
    74    77    80    1
    75    18    17    2
    76    19    16    1
    77    19    20    1
    78    47    46    1
    79    16    17    1
    80    81    80    1
    81    46    43    1
    82    60    59    1
    83    43    44    1
    84    43    42    1
    85    24    23    2
    86     7     5    1
    87    45    44    2
    88     1     2    1
    89    59    57   ar
    90    59    58   ar
    91    35    34    2
    92    57    55   ar
    93    29    28    1
    94    29    30    1
    95     5     2    1
    96     5     6    1
    97    23    28   am
    98    23    22    1
    99     2     3    1
   100    21    22    1
   101    32    30   am
   102    32    33    1
   103     4     3    2
   104    58    56   ar
   105    30    31    2
   106    34    33    1
   107    22    25    1
   108    55    54   ar
   109    33    36    1
   110    36    37    1
   111    39    37   ar
   112    39    41   ar
   113    25    27    1
   114    25    26    1
   115    56    54   ar
   116    37    38   ar
   117    54    53    1
   118    41    40   ar
   119    52    51    2
   120    38    40   ar
   121    53    50    1
   122    51    50    1
   123    50    49    1
