@<TRIPOS>MOLECULE
tmp/1kruC02.pdb
 85 77 0 0 0
SMALL
GASTEIGER

@<TRIPOS>ATOM
      1  N        -19.9680  -15.8280   17.4420 N.3    16  ASP16      -0.1225
      2  CA       -21.3400  -15.9660   17.9310 C.3    16  ASP16       0.1805
      3  C        -21.6660  -17.1650   18.8180 C.2    16  ASP16       0.2597
      4  O        -22.6840  -17.8370   18.6150 O.2    16  ASP16      -0.2718
      5  CB       -22.3040  -15.9500   16.7500 C.3    16  ASP16       0.1424
      6  CG       -22.1190  -17.1390   15.8320 C.2    16  ASP16       0.3668
      7  OD1      -21.1620  -17.9230   16.0420 O.co2  16  ASP16      -0.2456
      8  OD2      -22.9400  -17.2800   14.8980 O.co2  16  ASP16      -0.2456
      9  N        -20.8250  -17.4270   19.8110 N.am   17  MET17      -0.1979
     10  CA       -21.0760  -18.5480   20.7110 C.3    17  MET17       0.1605
     11  C        -21.4820  -18.0210   22.0880 C.2    17  MET17       0.2287
     12  O        -21.2040  -18.6450   23.1090 O.2    17  MET17      -0.2864
     13  CB       -19.8260  -19.4380   20.8310 C.3    17  MET17       0.0413
     14  CG       -19.5090  -20.2710   19.5920 C.3    17  MET17       0.0598
     15  SD       -20.8710  -21.3340   19.0100 S.3    17  MET17      -0.1393
     16  CE       -21.6600  -21.8530   20.5520 C.3    17  MET17       0.0692
     17  N        -30.4120  -19.4510   17.1910 N.3    25  ARG25      -0.1245
     18  CA       -30.1570  -20.2300   15.9820 C.3    25  ARG25       0.1563
     19  C        -30.8520  -21.5750   16.0520 C.2    25  ARG25       0.2260
     20  O        -31.2820  -22.1110   15.0370 O.2    25  ARG25      -0.2867
     21  CB       -28.6560  -20.4340   15.7960 C.3    25  ARG25       0.0307
     22  CG       -27.9140  -19.1360   15.6210 C.3    25  ARG25       0.0489
     23  CD       -26.7200  -19.2770   14.7090 C.3    25  ARG25       0.2205
     24  NE       -25.5850  -19.8470   15.4210 N.pl3  25  ARG25      -0.0865
     25  CZ       -24.9540  -19.2750   16.4440 C.cat  25  ARG25       0.5346
     26  NH1      -25.3350  -18.0890   16.8970 N.pl3  25  ARG25       0.1354
     27  NH2      -23.9310  -19.8950   17.0170 N.pl3  25  ARG25       0.1354
     28  N        -29.5430  -18.9000    8.9600 N.3    70  SER70      -0.1217
     29  CA       -28.8540  -19.0210   10.2500 C.3    70  SER70       0.1889
     30  C        -29.8160  -18.8270   11.4260 C.2    70  SER70       0.2288
     31  O        -29.8790  -19.6600   12.3230 O.2    70  SER70      -0.2866
     32  CB       -27.7110  -18.0130   10.3380 C.3    70  SER70       0.2089
     33  OG       -26.5780  -18.4800    9.6310 O.3    70  SER70      -0.2183
     34  N        -27.9370  -16.4040    4.7470 N.3    90  VAL90      -0.1245
     35  CA       -27.0890  -16.4310    5.9250 C.3    90  VAL90       0.1561
     36  C        -27.2630  -15.0490    6.5460 C.2    90  VAL90       0.2260
     37  O        -26.5440  -14.0950    6.2220 O.2    90  VAL90      -0.2867
     38  CB       -25.6210  -16.6940    5.5500 C.3    90  VAL90       0.0252
     39  CG1      -24.7890  -16.8760    6.8090 C.3    90  VAL90       0.0019
     40  CG2      -25.5350  -17.9530    4.6890 C.3    90  VAL90       0.0019
     41  N        -26.8290  -13.4670    9.6870 N.3    92  ASP92      -0.1239
     42  CA       -26.3250  -13.2950   11.0280 C.3    92  ASP92       0.1674
     43  C        -26.7130  -11.9020   11.4610 C.2    92  ASP92       0.2266
     44  O        -26.6240  -11.5480   12.6370 O.2    92  ASP92      -0.2867
     45  CB       -24.8220  -13.4910   11.0420 C.3    92  ASP92       0.1410
     46  CG       -24.4540  -14.9420   10.8790 C.2    92  ASP92       0.3668
     47  OD1      -24.4020  -15.6490   11.9100 O.co2  92  ASP92      -0.2456
     48  OD2      -24.2460  -15.3710    9.7220 O.co2  92  ASP92      -0.2456
     49  N        -22.8420  -12.2260    5.9890 N.3   112  THR112     -0.1218
     50  CA       -21.6050  -12.5890    6.6580 C.3   112  THR112      0.1862
     51  C        -20.4620  -12.9900    5.7400 C.2   112  THR112      0.2287
     52  O        -20.6590  -13.5920    4.6810 O.2   112  THR112     -0.2866
     53  CB       -21.8410  -13.7420    7.6340 C.3   112  THR112      0.1770
     54  OG1      -22.9330  -13.4080    8.4980 O.3   112  THR112     -0.2211
     55  CG2      -20.5990  -14.0060    8.4660 C.3   112  THR112      0.0375
     56  N        -15.7810  -13.6060    6.0630 N.3   114  HIS114     -0.1241
     57  CA       -14.7010  -13.8140    7.0130 C.3   114  HIS114      0.1621
     58  C        -13.4770  -13.0300    6.5980 C.2   114  HIS114      0.2264
     59  O        -13.2820  -12.7470    5.4120 O.2   114  HIS114     -0.2867
     60  CB       -14.3430  -15.3010    7.1150 C.3   114  HIS114      0.0745
     61  CG       -15.4220  -16.1430    7.7160 C.ar  114  HIS114      0.0817
     62  ND1      -15.8510  -15.9880    9.0170 N.ar  114  HIS114     -0.2268
     63  CD2      -16.1700  -17.1400    7.1890 C.ar  114  HIS114      0.1154
     64  CE1      -16.8190  -16.8520    9.2640 C.ar  114  HIS114      0.1986
     65  NE2      -17.0330  -17.5640    8.1710 N.ar  114  HIS114     -0.2212
     66  N        -10.4320  -18.0710   15.3840 N.3   123  ASN123     -0.1225
     67  CA       -11.5980  -18.5100   16.1300 C.3   123  ASN123      0.1785
     68  C        -12.9190  -18.2780   15.4160 C.2   123  ASN123      0.2597
     69  O        -13.9520  -18.0730   16.0530 O.2   123  ASN123     -0.2718
     70  CB       -11.6120  -17.8220   17.4920 C.3   123  ASN123      0.1169
     71  CG       -10.2180  -17.4100   17.9430 C.2   123  ASN123      0.2627
     72  OD1       -9.8900  -16.2200   17.9830 O.2   123  ASN123     -0.2716
     73  ND2       -9.3870  -18.3980   18.2790 N.am  123  ASN123     -0.0877
     74  N        -12.8820  -18.3120   14.0910 N.am  124  GLY124     -0.1957
     75  CA       -14.0960  -18.1220   13.3220 C.3   124  GLY124      0.1869
     76  C        -14.6290  -16.7100   13.3910 C.2   124  GLY124      0.2309
     77  O        -15.8410  -16.4960   13.4880 O.2   124  GLY124     -0.2863
     78  N        -15.9760  -13.3110   12.2460 N.3   126  MET126     -0.1245
     79  CA       -16.8210  -13.0150   11.1100 C.3   126  MET126      0.1570
     80  C        -17.3260  -11.5900   11.1860 C.2   126  MET126      0.2261
     81  O        -17.2130  -10.9370   12.2210 O.2   126  MET126     -0.2867
     82  CB       -18.0050  -13.9980   11.0680 C.3   126  MET126      0.0387
     83  CG       -19.0040  -13.8290   12.2090 C.3   126  MET126      0.0595
     84  SD       -20.1610  -15.2190   12.4440 S.3   126  MET126     -0.1393
     85  CE       -19.3990  -16.0490   13.8730 C.3   126  MET126      0.0692
@<TRIPOS>BOND
     1    52    51    2
     2    40    38    1
     3    34    35    1
     4    59    58    2
     5    38    35    1
     6    38    39    1
     7    51    50    1
     8    35    36    1
     9    49    50    1
    10    56    57    1
    11    37    36    2
    12    58    57    1
    13    50    53    1
    14    57    60    1
    15    60    61    1
    16    63    61   ar
    17    63    65   ar
    18    53    55    1
    19    53    54    1
    20    61    62   ar
    21    65    64   ar
    22    28    29    1
    23    62    64   ar
    24    33    32    1
    25    41    42    1
    26    48    46   ar
    27    29    32    1
    28    29    30    1
    29    46    45    1
    30    46    47   ar
    31    42    45    1
    32    42    43    1
    33    82    79    1
    34    82    83    1
    35    79    80    1
    36    79    78    1
    37    80    81    2
    38    30    31    2
    39    43    44    2
    40    83    84    1
    41    84    85    1
    42    75    76    1
    43    75    74    1
    44    76    77    2
    45    74    68   am
    46    23    24    1
    47    23    22    1
    48     8     6   ar
    49    20    19    2
    50    66    67    1
    51    68    69    2
    52    68    67    1
    53    24    25    2
    54    22    21    1
    55    21    18    1
    56     6     7   ar
    57     6     5    1
    58    18    19    1
    59    18    17    1
    60    67    70    1
    61    25    26    1
    62    25    27    1
    63     5     2    1
    64     1     2    1
    65    70    71    1
    66     2     3    1
    67    71    72    2
    68    71    73   am
    69     4     3    2
    70     3     9   am
    71    15    14    1
    72    15    16    1
    73    14    13    1
    74     9    10    1
    75    10    13    1
    76    10    11    1
    77    11    12    2
