@<TRIPOS>MOLECULE
tmp/1kruC01.pdb
 135 129 0 0 0
SMALL
GASTEIGER

@<TRIPOS>ATOM
      1  N        -38.0200  -19.7260   -5.0870 N.3    84  ASN84      -0.1240
      2  CA       -38.0670  -21.0970   -5.5200 C.3    84  ASN84       0.1653
      3  C        -37.2440  -21.9910   -4.6040 C.2    84  ASN84       0.2266
      4  O        -36.9220  -21.6190   -3.4790 O.2    84  ASN84      -0.2867
      5  CB       -37.6010  -21.0160   -7.0110 C.3    84  ASN84       0.1155
      6  CG       -38.6400  -21.6130   -7.9530 C.2    84  ASN84       0.2627
      7  OD1      -39.2560  -22.6260   -7.6190 O.2    84  ASN84      -0.2716
      8  ND2      -38.8800  -21.0390   -9.1130 N.am   84  ASN84      -0.0877
      9  N        -38.8280  -11.5410   -6.8560 N.3   102  LEU102     -0.1245
     10  CA       -38.9020  -12.9080   -7.3860 C.3   102  LEU102      0.1561
     11  C        -37.5290  -13.5780   -7.3660 C.2   102  LEU102      0.2260
     12  O        -36.5710  -13.0410   -7.9230 O.2   102  LEU102     -0.2867
     13  CB       -39.4030  -12.8490   -8.8240 C.3   102  LEU102      0.0270
     14  CG       -40.6370  -13.6540   -9.2040 C.3   102  LEU102      0.0019
     15  CD1      -41.3840  -12.9220  -10.3220 C.3   102  LEU102      0.0001
     16  CD2      -40.2000  -15.0490   -9.6620 C.3   102  LEU102      0.0001
     17  N        -35.1260  -17.0000   -8.1770 N.3   104  ALA104     -0.1231
     18  CA       -34.9460  -18.2670   -8.8730 C.3   104  ALA104      0.1679
     19  C        -34.4220  -19.3430   -7.9310 C.2   104  ALA104      0.2434
     20  O        -34.0660  -19.0620   -6.7910 O.2   104  ALA104     -0.2733
     21  CB       -33.9800  -18.0750  -10.0330 C.3   104  ALA104      0.0304
     22  N        -34.3960  -20.6060   -8.3870 N.am  105  PRO105     -0.2729
     23  CA       -33.8990  -21.6940   -7.5460 C.3   105  PRO105      0.1401
     24  C        -32.4070  -21.5540   -7.2710 C.2   105  PRO105      0.2269
     25  O        -31.6660  -20.9790   -8.0710 O.2   105  PRO105     -0.2865
     26  CB       -34.1920  -22.9500   -8.3640 C.3   105  PRO105      0.0296
     27  CG       -35.1580  -22.5400   -9.3960 C.3   105  PRO105      0.0237
     28  CD       -34.8760  -21.1070   -9.6840 C.3   105  PRO105      0.0939
     29  N        -35.7220   -9.1180   -9.7400 N.3   138  TRP138     -0.1241
     30  CA       -35.7560  -10.5130  -10.1560 C.3   138  TRP138      0.1605
     31  C        -34.3400  -11.0570  -10.1200 C.2   138  TRP138      0.2264
     32  O        -33.4690  -10.5870  -10.8530 O.2   138  TRP138     -0.2867
     33  CB       -36.3260  -10.6380  -11.5770 C.3   138  TRP138      0.0550
     34  CG       -36.2140  -12.0200  -12.1630 C.ar  138  TRP138      0.0003
     35  CD1      -36.2200  -13.2040  -11.4800 C.ar  138  TRP138      0.0946
     36  CD2      -36.0280  -12.3550  -13.5410 C.ar  138  TRP138      0.0152
     37  NE1      -36.0460  -14.2530  -12.3450 N.ar  138  TRP138     -0.2442
     38  CE2      -35.9250  -13.7610  -13.6180 C.ar  138  TRP138      0.0810
     39  CE3      -35.9390  -11.6020  -14.7180 C.ar  138  TRP138      0.0012
     40  CZ2      -35.7340  -14.4320  -14.8270 C.ar  138  TRP138      0.0191
     41  CZ3      -35.7480  -12.2670  -15.9200 C.ar  138  TRP138      0.0001
     42  CH2      -35.6480  -13.6710  -15.9640 C.ar  138  TRP138      0.0015
     43  N        -31.8090  -14.2090  -10.7150 N.3   140  GLY140     -0.1210
     44  CA       -31.6950  -15.4470  -11.4570 C.3   140  GLY140      0.1956
     45  C        -31.1700  -16.6220  -10.6590 C.2   140  GLY140      0.2612
     46  O        -30.8240  -16.4900   -9.4770 O.2   140  GLY140     -0.2717
     47  N        -31.1060  -17.7720  -11.3250 N.am  141  SER141     -0.1952
     48  CA       -30.6420  -19.0280  -10.7420 C.3   141  SER141      0.1924
     49  C        -29.1500  -19.0590  -10.4220 C.2   141  SER141      0.2314
     50  O        -28.3200  -18.5830  -11.1980 O.2   141  SER141     -0.2863
     51  CB       -30.9550  -20.1800  -11.6940 C.3   141  SER141      0.2116
     52  OG       -32.3450  -20.3590  -11.8520 O.3   141  SER141     -0.2180
     53  N        -32.6930   -6.4720  -12.5100 N.3   156  VAL156     -0.1231
     54  CA       -32.6750   -7.8950  -12.7940 C.3   156  VAL156      0.1692
     55  C        -31.2430   -8.3810  -12.6740 C.2   156  VAL156      0.2592
     56  O        -30.3120   -7.7150  -13.1280 O.2   156  VAL156     -0.2718
     57  CB       -33.1570   -8.2100  -14.2080 C.3   156  VAL156      0.0266
     58  CG1      -32.9370   -9.6970  -14.4980 C.3   156  VAL156      0.0020
     59  CG2      -34.6270   -7.8540  -14.3520 C.3   156  VAL156      0.0020
     60  N        -31.0820   -9.5460  -12.0580 N.am  157  ILE157     -0.1966
     61  CA       -29.7740  -10.1510  -11.8520 C.3   157  ILE157      0.1727
     62  C        -29.6880  -11.4570  -12.6400 C.2   157  ILE157      0.2617
     63  O        -30.3030  -12.4610  -12.2670 O.2   157  ILE157     -0.2715
     64  CB       -29.5290  -10.4520  -10.3430 C.3   157  ILE157      0.0290
     65  CG1      -29.8400   -9.2040   -9.5030 C.3   157  ILE157      0.0022
     66  CG2      -28.0930  -10.9500  -10.1240 C.3   157  ILE157      0.0023
     67  CD1      -28.9350   -8.0070   -9.7670 C.3   157  ILE157      0.0001
     68  N        -28.9260  -11.4340  -13.7320 N.am  158  GLY158     -0.1940
     69  CA       -28.7630  -12.6160  -14.5530 C.3   158  GLY158      0.2014
     70  C        -28.4320  -13.8340  -13.7150 C.2   158  GLY158      0.2639
     71  O        -27.9770  -13.7170  -12.5750 O.2   158  GLY158     -0.2714
     72  N        -28.6500  -15.0180  -14.2710 N.am  159  ALA159     -0.1963
     73  CA       -28.3720  -16.2390  -13.5350 C.3   159  ALA159      0.1728
     74  C        -26.8800  -16.4610  -13.3850 C.2   159  ALA159      0.2616
     75  O        -26.0920  -16.0700  -14.2430 O.2   159  ALA159     -0.2715
     76  CB       -29.0150  -17.4280  -14.2300 C.3   159  ALA159      0.0334
     77  N        -26.5030  -17.0700  -12.2660 N.am  160  GLY160     -0.1955
     78  CA       -25.1090  -17.3770  -12.0070 C.3   160  GLY160      0.1869
     79  C        -24.1580  -16.2340  -11.7010 C.2   160  GLY160      0.2309
     80  O        -22.9450  -16.4440  -11.6920 O.2   160  GLY160     -0.2863
     81  N        -30.0420   -4.3550  -15.7390 N.3   172  VAL172     -0.1245
     82  CA       -29.9340   -5.7790  -15.9490 C.3   172  VAL172      0.1561
     83  C        -28.4500   -5.9190  -15.6910 C.2   172  VAL172      0.2260
     84  O        -27.6380   -5.2770  -16.3720 O.2   172  VAL172     -0.2867
     85  CB       -30.2200   -6.1730  -17.4200 C.3   172  VAL172      0.0252
     86  CG1      -29.8510   -7.6130  -17.6500 C.3   172  VAL172      0.0019
     87  CG2      -31.6800   -5.9550  -17.7500 C.3   172  VAL172      0.0019
     88  N        -25.2050   -8.8330  -14.6150 N.3   174  ALA174     -0.1231
     89  CA       -24.8530  -10.2440  -14.6490 C.3   174  ALA174      0.1694
     90  C        -23.3460  -10.4010  -14.7230 C.2   174  ALA174      0.2592
     91  O        -22.6300   -9.4270  -14.9340 O.2   174  ALA174     -0.2718
     92  CB       -25.5130  -10.9150  -15.8460 C.3   174  ALA174      0.0304
     93  N        -22.8670  -11.6260  -14.5340 N.am  175  GLY175     -0.1957
     94  CA       -21.4420  -11.8720  -14.6130 C.3   175  GLY175      0.1869
     95  C        -20.7600  -12.3080  -13.3300 C.2   175  GLY175      0.2309
     96  O        -21.3590  -12.3460  -12.2540 O.2   175  GLY175     -0.2863
     97  N        -24.9560   -4.5110  -17.3080 N.3   181  ILE181     -0.1231
     98  CA       -24.7260   -4.7410  -18.7170 C.3   181  ILE181      0.1692
     99  C        -25.4820   -3.6640  -19.4750 C.2   181  ILE181      0.2591
    100  O        -24.9930   -3.1580  -20.4740 O.2   181  ILE181     -0.2718
    101  CB       -25.1860   -6.1540  -19.1860 C.3   181  ILE181      0.0266
    102  CG1      -26.6900   -6.1670  -19.4120 C.3   181  ILE181      0.0019
    103  CG2      -24.7900   -7.2160  -18.1750 C.3   181  ILE181      0.0020
    104  CD1      -27.0900   -6.8830  -20.6830 C.3   181  ILE181      0.0001
    105  N        -26.6620   -3.2970  -18.9820 N.am  182  ARG182     -0.1980
    106  CA       -27.4800   -2.2670  -19.6310 C.3   182  ARG182      0.1597
    107  C        -28.6090   -1.7560  -18.7500 C.2   182  ARG182      0.2287
    108  O        -28.8900   -2.3110  -17.6950 O.2   182  ARG182     -0.2864
    109  CB       -28.0800   -2.7970  -20.9410 C.3   182  ARG182      0.0334
    110  CG       -29.4280   -3.5280  -20.7860 C.3   182  ARG182      0.0492
    111  CD       -29.8950   -4.1290  -22.1150 C.3   182  ARG182      0.2205
    112  NE       -30.7380   -5.3010  -21.9150 N.pl3 182  ARG182     -0.0865
    113  CZ       -32.0440   -5.2520  -21.6670 C.cat 182  ARG182      0.5346
    114  NH1      -32.6550   -4.0780  -21.5890 N.pl3 182  ARG182      0.1354
    115  NH2      -32.7370   -6.3720  -21.4940 N.pl3 182  ARG182      0.1354
    116  N        -38.5270  -11.5830  -24.3820 N.3   193  PHE193     -0.1227
    117  CA       -37.5050  -12.6180  -24.4140 C.3   193  PHE193      0.1736
    118  C        -36.9110  -12.8020  -25.7930 C.2   193  PHE193      0.2595
    119  O        -37.5830  -13.2950  -26.7030 O.2   193  PHE193     -0.2718
    120  CB       -38.0610  -13.9590  -23.9430 C.3   193  PHE193      0.0547
    121  CG       -37.1400  -15.1160  -24.2100 C.ar  193  PHE193     -0.0202
    122  CD1      -36.0480  -15.3630  -23.3720 C.ar  193  PHE193     -0.0042
    123  CD2      -37.3530  -15.9590  -25.3010 C.ar  193  PHE193     -0.0042
    124  CE1      -35.1790  -16.4390  -23.6160 C.ar  193  PHE193     -0.0003
    125  CE2      -36.4960  -17.0300  -25.5550 C.ar  193  PHE193     -0.0003
    126  CZ       -35.4060  -17.2720  -24.7110 C.ar  193  PHE193     -0.0000
    127  N        -35.6460  -12.4160  -25.9370 N.am  194  LYS194     -0.1980
    128  CA       -34.9570  -12.5430  -27.2120 C.3   194  LYS194      0.1596
    129  C        -35.7220  -11.8170  -28.3140 C.2   194  LYS194      0.2287
    130  O        -35.8220  -10.5930  -28.2980 O.2   194  LYS194     -0.2864
    131  CB       -34.8060  -14.0210  -27.5770 C.3   194  LYS194      0.0298
    132  CG       -33.4350  -14.6010  -27.2880 C.3   194  LYS194      0.0038
    133  CD       -33.5090  -16.1120  -27.0960 C.3   194  LYS194      0.0206
    134  CE       -34.0960  -16.8240  -28.3260 C.3   194  LYS194      0.1093
    135  NZ       -34.2790  -18.3010  -28.1080 N.3   194  LYS194     -0.1314
@<TRIPOS>BOND
     1   134   135    1
     2   134   133    1
     3   129   130    2
     4   129   128    1
     5   131   132    1
     6   131   128    1
     7   132   133    1
     8   128   127    1
     9   119   118    2
    10   127   118   am
    11   118   117    1
    12   125   123   ar
    13   125   126   ar
    14   123   121   ar
    15   126   124   ar
    16   117   116    1
    17   117   120    1
    18   121   120    1
    19   121   122   ar
    20   124   122   ar
    21   111   112    1
    22   111   110    1
    23   112   113    2
    24   113   114    1
    25   113   115    1
    26   109   110    1
    27   109   106    1
    28   104   102    1
    29   100    99    2
    30   106   105    1
    31   106   107    1
    32    99   105   am
    33    99    98    1
    34   102   101    1
    35   101    98    1
    36   101   103    1
    37   107   108    2
    38    98    97    1
    39    87    85    1
    40    86    85    1
    41    85    82    1
    42    84    83    2
    43    42    41   ar
    44    42    40   ar
    45    82    81    1
    46    82    83    1
    47    41    39   ar
    48    92    89    1
    49    91    90    2
    50    40    38   ar
    51    90    89    1
    52    90    93   am
    53    39    36   ar
    54    89    88    1
    55    94    93    1
    56    94    95    1
    57    69    68    1
    58    69    70    1
    59    58    57    1
    60    59    57    1
    61    72    70   am
    62    72    73    1
    63    75    74    2
    64    76    73    1
    65    57    54    1
    66    68    62   am
    67    70    71    2
    68    38    36   ar
    69    38    37   ar
    70    36    34   ar
    71    73    74    1
    72    74    77   am
    73    95    96    2
    74    56    55    2
    75    54    55    1
    76    54    53    1
    77    55    60   am
    78    62    63    2
    79    62    61    1
    80    37    35   ar
    81    77    78    1
    82    34    33    1
    83    34    35   ar
    84    60    61    1
    85    78    79    1
    86    52    51    1
    87    61    64    1
    88    79    80    2
    89    51    48    1
    90    33    30    1
    91    44    43    1
    92    44    45    1
    93    47    48    1
    94    47    45   am
    95    50    49    2
    96    32    31    2
    97    48    49    1
    98    45    46    2
    99    64    66    1
   100    64    65    1
   101    15    14    1
   102    30    31    1
   103    30    29    1
   104    21    18    1
   105    67    65    1
   106    28    27    1
   107    28    22    1
   108    16    14    1
   109    27    26    1
   110    14    13    1
   111     8     6   am
   112    18    17    1
   113    18    19    1
   114    13    10    1
   115    22    19   am
   116    22    23    1
   117    26    23    1
   118    25    24    2
   119     6     7    2
   120     6     5    1
   121    19    20    2
   122    12    11    2
   123    23    24    1
   124    10    11    1
   125    10     9    1
   126     5     2    1
   127     2     1    1
   128     2     3    1
   129     3     4    2
