@<TRIPOS>MOLECULE
tmp/1krvA01.pdb
 112 103 0 0 0
SMALL
GASTEIGER

@<TRIPOS>ATOM
      1  N        -49.9260  -18.9380  -13.7880 N.3    16  ASP16      -0.1225
      2  CA       -50.4190  -20.2850  -13.5770 C.3    16  ASP16       0.1805
      3  C        -51.2030  -20.5980  -12.3150 C.2    16  ASP16       0.2597
      4  O        -50.9460  -21.6080  -11.6710 O.2    16  ASP16      -0.2718
      5  CB       -49.2480  -21.2410  -13.6580 C.3    16  ASP16       0.1424
      6  CG       -48.1480  -20.8840  -12.6860 C.2    16  ASP16       0.3668
      7  OD1      -48.4210  -20.2000  -11.6690 O.co2  16  ASP16      -0.2456
      8  OD2      -47.0000  -21.2930  -12.9480 O.co2  16  ASP16      -0.2456
      9  N        -52.1670  -19.7640  -11.9590 N.am   17  MET17      -0.1979
     10  CA       -52.9590  -20.0320  -10.7670 C.3    17  MET17       0.1605
     11  C        -54.3610  -20.4230  -11.2010 C.2    17  MET17       0.2287
     12  O        -55.3400  -20.0420  -10.5710 O.2    17  MET17      -0.2864
     13  CB       -53.0220  -18.7890   -9.8740 C.3    17  MET17       0.0413
     14  CG       -51.6970  -18.3720   -9.2470 C.3    17  MET17       0.0598
     15  SD       -50.8300  -19.6530   -8.3070 S.3    17  MET17      -0.1393
     16  CE       -52.2170  -20.6380   -7.6230 C.3    17  MET17       0.0692
     17  N        -49.3280  -29.2480  -10.0900 N.3    25  ARG25      -0.1245
     18  CA       -48.0950  -29.0520   -9.3330 C.3    25  ARG25       0.1563
     19  C        -48.0730  -29.8130   -8.0050 C.2    25  ARG25       0.2260
     20  O        -47.0160  -30.2590   -7.5430 O.2    25  ARG25      -0.2867
     21  CB       -47.9010  -27.5680   -9.0770 C.3    25  ARG25       0.0307
     22  CG       -47.8340  -26.7790  -10.3450 C.3    25  ARG25       0.0489
     23  CD       -46.9300  -25.5910  -10.1810 C.3    25  ARG25       0.2205
     24  NE       -47.6320  -24.4910   -9.5330 N.pl3  25  ARG25      -0.0865
     25  CZ       -48.6490  -23.8240  -10.0820 C.cat  25  ARG25       0.5346
     26  NH1      -49.0770  -24.1340  -11.3080 N.pl3  25  ARG25       0.1354
     27  NH2      -49.2360  -22.8390   -9.4090 N.pl3  25  ARG25       0.1354
     28  N        -45.4630  -32.4280   -6.7130 N.3    29  LYS29      -0.1245
     29  CA       -44.6520  -32.1050   -5.5540 C.3    29  LYS29       0.1561
     30  C        -44.8480  -33.2030   -4.5060 C.2    29  LYS29       0.2260
     31  O        -43.9880  -33.4130   -3.6350 O.2    29  LYS29      -0.2867
     32  CB       -45.0560  -30.7370   -4.9900 C.3    29  LYS29       0.0271
     33  CG       -43.9780  -29.6620   -5.1380 C.3    29  LYS29       0.0035
     34  CD       -43.7340  -29.2710   -6.6010 C.3    29  LYS29       0.0206
     35  CE       -44.2250  -27.8490   -6.8860 C.3    29  LYS29       0.1093
     36  NZ       -43.2520  -27.0410   -7.6640 N.3    29  LYS29      -0.1314
     37  N        -41.0200  -28.5990  -11.0810 N.3    70  SER70      -0.1202
     38  CA       -42.2810  -27.9020  -10.9120 C.3    70  SER70       0.2020
     39  C        -43.4900  -28.8140  -11.0700 C.2    70  SER70       0.2618
     40  O        -44.3740  -28.8100  -10.2160 O.2    70  SER70      -0.2717
     41  CB       -42.3620  -26.7460  -11.8880 C.3    70  SER70       0.2103
     42  OG       -41.5140  -25.7060  -11.4340 O.3    70  SER70      -0.2182
     43  N        -43.5380  -29.5860  -12.1580 N.am   71  TYR71      -0.1975
     44  CA       -44.6500  -30.5090  -12.3950 C.3    71  TYR71       0.1639
     45  C        -44.0900  -31.8980  -12.4770 C.2    71  TYR71       0.2290
     46  O        -44.5880  -32.8120  -11.8400 O.2    71  TYR71      -0.2864
     47  CB       -45.3910  -30.1950  -13.6990 C.3    71  TYR71       0.0560
     48  CG       -45.9650  -28.7930  -13.7600 C.ar   71  TYR71      -0.0198
     49  CD1      -45.1240  -27.6890  -13.9400 C.ar   71  TYR71      -0.0009
     50  CD2      -47.3350  -28.5620  -13.6340 C.ar   71  TYR71      -0.0009
     51  CE1      -45.6210  -26.3960  -13.9940 C.ar   71  TYR71       0.0417
     52  CE2      -47.8510  -27.2550  -13.6850 C.ar   71  TYR71       0.0417
     53  CZ       -46.9830  -26.1760  -13.8680 C.ar   71  TYR71       0.1957
     54  OH       -47.4550  -24.8720  -13.9410 O.3    71  TYR71      -0.2866
     55  N        -37.1500  -26.7450  -13.7530 N.3    90  VAL90      -0.1245
     56  CA       -38.3710  -25.9740  -13.7020 C.3    90  VAL90       0.1561
     57  C        -39.0320  -26.2790  -15.0240 C.2    90  VAL90       0.2260
     58  O        -38.6140  -25.7700  -16.0820 O.2    90  VAL90      -0.2867
     59  CB       -38.0740  -24.4860  -13.6000 C.3    90  VAL90       0.0252
     60  CG1      -39.3640  -23.7010  -13.7400 C.3    90  VAL90       0.0019
     61  CG2      -37.3650  -24.1950  -12.2790 C.3    90  VAL90       0.0019
     62  N        -42.3970  -25.8080  -16.5170 N.3    92  ASP92      -0.1239
     63  CA       -43.7440  -25.2820  -16.7200 C.3    92  ASP92       0.1674
     64  C        -44.1090  -25.6460  -18.1170 C.2    92  ASP92       0.2266
     65  O        -45.2520  -25.4950  -18.5360 O.2    92  ASP92      -0.2867
     66  CB       -43.7470  -23.7980  -16.5850 C.3    92  ASP92       0.1410
     67  CG       -43.2370  -23.3970  -15.2810 C.2    92  ASP92       0.3668
     68  OD1      -42.0090  -23.2370  -15.1610 O.co2  92  ASP92      -0.2456
     69  OD2      -44.0650  -23.2810  -14.3660 O.co2  92  ASP92      -0.2456
     70  N        -34.1440  -24.6820  -16.5350 N.3   110  SER110     -0.1217
     71  CA       -35.3780  -23.9250  -16.4420 C.3   110  SER110      0.1889
     72  C        -35.8480  -23.3980  -17.7830 C.2   110  SER110      0.2288
     73  O        -35.1180  -22.6930  -18.4870 O.2   110  SER110     -0.2866
     74  CB       -35.2270  -22.7550  -15.4720 C.3   110  SER110      0.2089
     75  OG       -36.4770  -22.0890  -15.3320 O.3   110  SER110     -0.2183
     76  N        -38.5170  -21.5660  -17.9040 N.3   112  THR112     -0.1218
     77  CA       -39.2040  -20.3380  -17.5340 C.3   112  THR112      0.1862
     78  C        -38.2970  -19.1720  -17.1710 C.2   112  THR112      0.2287
     79  O        -37.2270  -19.3430  -16.6030 O.2   112  THR112     -0.2866
     80  CB       -40.1650  -20.6020  -16.3670 C.3   112  THR112      0.1770
     81  OG1      -41.0790  -21.6300  -16.7530 O.3   112  THR112     -0.2211
     82  CG2      -40.9480  -19.3510  -15.9990 C.3   112  THR112      0.0375
     83  N        -38.7050  -14.5230  -16.6270 N.3   114  HIS114     -0.1241
     84  CA       -39.6870  -13.4790  -16.3960 C.3   114  HIS114      0.1621
     85  C        -39.3310  -12.2800  -17.2520 C.2   114  HIS114      0.2264
     86  O        -38.1520  -12.0380  -17.5300 O.2   114  HIS114     -0.2867
     87  CB       -39.6920  -13.0780  -14.9160 C.3   114  HIS114      0.0745
     88  CG       -40.2430  -14.1300  -14.0020 C.ar  114  HIS114      0.0817
     89  ND1      -41.5900  -14.3420  -13.8330 N.ar  114  HIS114     -0.2268
     90  CD2      -39.6180  -15.0040  -13.1760 C.ar  114  HIS114      0.1154
     91  CE1      -41.7830  -15.2970  -12.9460 C.ar  114  HIS114      0.1986
     92  NE2      -40.5980  -15.7210  -12.5290 N.ar  114  HIS114     -0.2212
     93  N        -47.5100   -9.1180  -12.0720 N.3   123  ASN123     -0.1225
     94  CA       -48.1770  -10.2590  -11.4510 C.3   123  ASN123      0.1785
     95  C        -47.4120  -11.5580  -11.6140 C.2   123  ASN123      0.2597
     96  O        -48.0090  -12.6310  -11.7210 O.2   123  ASN123     -0.2718
     97  CB       -49.5630  -10.4080  -12.0490 C.3   123  ASN123      0.1169
     98  CG       -50.1300   -9.0890  -12.4520 C.2   123  ASN123      0.2627
     99  OD1      -50.6380   -8.9200  -13.5590 O.2   123  ASN123     -0.2716
    100  ND2      -50.0310   -8.1230  -11.5530 N.am  123  ASN123     -0.0877
    101  N        -46.0880  -11.4510  -11.6270 N.am  124  GLY124     -0.1957
    102  CA       -45.2530  -12.6240  -11.7720 C.3   124  GLY124      0.1869
    103  C        -45.4990  -13.3380  -13.0860 C.2   124  GLY124      0.2309
    104  O        -45.4100  -14.5670  -13.1430 O.2   124  GLY124     -0.2863
    105  N        -44.9450  -14.9230  -16.6480 N.3   126  MET126     -0.1196
    106  CA       -43.8000  -15.6950  -17.0890 C.3   126  MET126      0.1786
    107  C        -43.9250  -16.1680  -18.5420 C.2   126  MET126      0.2306
    108  O        -44.9740  -16.0190  -19.1750 O.2   126  MET126     -0.2863
    109  CB       -43.6130  -16.9070  -16.1490 C.2   126  MET126      0.0070
    110  CG       -44.9090  -17.4540  -15.5100 C.2   126  MET126      0.0282
    111  SD       -44.7170  -18.8940  -14.3760 S.3   126  MET126     -0.1125
    112  CE       -43.3250  -18.4050  -13.5020 C.3   126  MET126      0.0742
@<TRIPOS>BOND
     1   108   107    2
     2   107   106    1
     3    65    64    2
     4    73    72    2
     5    64    63    1
     6    76    77    1
     7    72    71    1
     8    77    78    1
     9    77    80    1
    10    86    85    2
    11    85    84    1
    12    78    79    2
    13   106   105    1
    14   106   109    1
    15    81    80    1
    16    63    66    1
    17    63    62    1
    18    83    84    1
    19    66    67    1
    20    70    71    1
    21    71    74    1
    22    84    87    1
    23    80    82    1
    24   109   110    2
    25    58    57    2
    26   110   111    1
    27    74    75    1
    28    67    68   ar
    29    67    69   ar
    30    57    56    1
    31    87    88    1
    32   111   112    1
    33    88    89   ar
    34    88    90   ar
    35    51    49   ar
    36    51    53   ar
    37    54    53    1
    38    49    48   ar
    39    53    52   ar
    40    89    91   ar
    41     1     2    1
    42    48    47    1
    43    48    50   ar
    44    55    56    1
    45    60    59    1
    46    56    59    1
    47    47    44    1
    48    52    50   ar
    49     5     2    1
    50     5     6    1
    51    59    61    1
    52     2     3    1
    53    99    98    2
    54    90    92   ar
    55   104   103    2
    56   103   102    1
    57     8     6   ar
    58    91    92   ar
    59     6     7   ar
    60    45    44    1
    61    45    46    2
    62    98    97    1
    63    98   100   am
    64    44    43    1
    65     3     9   am
    66     3     4    2
    67    43    39   am
    68    93    94    1
    69    97    94    1
    70     9    10    1
    71    41    42    1
    72    41    38    1
    73   102   101    1
    74    96    95    2
    75   101    95   am
    76    95    94    1
    77    26    25    1
    78    11    10    1
    79    11    12    2
    80    37    38    1
    81    39    38    1
    82    39    40    2
    83    10    13    1
    84    22    23    1
    85    22    21    1
    86    23    24    1
    87    17    18    1
    88    25    24    2
    89    25    27    1
    90    13    14    1
    91    18    21    1
    92    18    19    1
    93    14    15    1
    94    15    16    1
    95    19    20    2
    96    36    35    1
    97    35    34    1
    98    28    29    1
    99    34    33    1
   100    29    32    1
   101    29    30    1
   102    33    32    1
   103    30    31    2
