@<TRIPOS>MOLECULE
tmp/1ksfA03.pdb
 140 134 0 0 0
SMALL
GASTEIGER

@<TRIPOS>ATOM
      1  N        134.7610   35.4440    8.1350 N.3   161  ASP161     -0.1225
      2  CA       134.4090   36.7160    8.7350 C.3   161  ASP161      0.1790
      3  C        135.4920   37.0180    9.8080 C.2   161  ASP161      0.2440
      4  O        135.9190   36.1190   10.5270 O.2   161  ASP161     -0.2733
      5  CB       133.0150   36.6330    9.3670 C.3   161  ASP161      0.1423
      6  CG       132.0280   37.6790    8.7780 C.2   161  ASP161      0.3668
      7  OD1      130.8400   37.6340    9.1320 O.co2 161  ASP161     -0.2456
      8  OD2      132.3500   38.5250    7.9220 O.co2 161  ASP161     -0.2456
      9  N        135.9090   38.2910    9.9070 N.am  162  PRO162     -0.2718
     10  CA       137.0120   38.6990   10.8040 C.3   162  PRO162      0.1535
     11  C        136.8390   38.3180   12.2680 C.2   162  PRO162      0.2598
     12  O        135.7190   38.2240   12.7580 O.2   162  PRO162     -0.2715
     13  CB       137.0210   40.2300   10.6670 C.3   162  PRO162      0.0310
     14  CG       136.3140   40.5020    9.3880 C.3   162  PRO162      0.0237
     15  CD       135.2920   39.4480    9.2310 C.3   162  PRO162      0.0939
     16  N        137.9690   38.1120   12.9600 N.am  163  LEU163     -0.1964
     17  CA       137.9680   37.7650   14.3960 C.3   163  LEU163      0.1728
     18  C        138.3560   38.9920   15.2310 C.2   163  LEU163      0.2616
     19  O        139.4580   39.5070   15.1130 O.2   163  LEU163     -0.2715
     20  CB       138.9220   36.6450   14.6640 C.3   163  LEU163      0.0311
     21  CG       138.9150   36.0900   16.0910 C.3   163  LEU163      0.0022
     22  CD1      137.6060   35.4360   16.3990 C.3   163  LEU163      0.0001
     23  CD2      140.0260   35.1120   16.2550 C.3   163  LEU163      0.0001
     24  N        137.4410   39.4320   16.0770 N.am  164  ILE164     -0.1977
     25  CA       137.6390   40.6180   16.9010 C.3   164  ILE164      0.1596
     26  C        138.0310   40.2870   18.3460 C.2   164  ILE164      0.2287
     27  O        137.3400   39.5290   19.0380 O.2   164  ILE164     -0.2864
     28  CB       136.3780   41.4840   16.8560 C.3   164  ILE164      0.0276
     29  CG1      136.1870   42.0310   15.4310 C.3   164  ILE164      0.0022
     30  CG2      136.4680   42.6400   17.8790 C.3   164  ILE164      0.0022
     31  CD1      134.8410   42.2860   15.0820 C.3   164  ILE164      0.0001
     32  N        140.0060   38.7420   21.5280 N.3   166  ARG166     -0.1245
     33  CA       140.4550   37.4030   21.9030 C.3   166  ARG166      0.1563
     34  C        141.9130   37.0910   21.6640 C.2   166  ARG166      0.2260
     35  O        142.2610   35.9850   21.2560 O.2   166  ARG166     -0.2867
     36  CB       139.5420   36.3350   21.3460 C.3   166  ARG166      0.0307
     37  CG       138.3160   36.1790   22.1570 C.3   166  ARG166      0.0489
     38  CD       137.4720   35.1120   21.7580 C.3   166  ARG166      0.2205
     39  NE       136.6250   34.6600   22.8610 N.pl3 166  ARG166     -0.0865
     40  CZ       135.3480   34.3650   22.7290 C.cat 166  ARG166      0.5346
     41  NH1      134.7510   34.5060   21.5520 N.pl3 166  ARG166      0.1354
     42  NH2      134.6670   33.9390   23.7490 N.pl3 166  ARG166      0.1354
     43  N        130.8400   26.9710   25.5530 N.3   190  GLU190     -0.1231
     44  CA       129.4550   26.7740   25.1670 C.3   190  GLU190      0.1699
     45  C        129.2560   27.0700   23.6820 C.2   190  GLU190      0.2593
     46  O        130.1120   27.6090   23.0460 O.2   190  GLU190     -0.2718
     47  CB       128.5620   27.6910   25.9860 C.3   190  GLU190      0.0402
     48  CG       128.9460   27.7880   27.4480 C.3   190  GLU190      0.1161
     49  CD       128.3810   26.6590   28.2730 C.2   190  GLU190      0.3649
     50  OE1      127.4350   25.9970   27.8000 O.co2 190  GLU190     -0.2457
     51  OE2      128.8620   26.4500   29.4130 O.co2 190  GLU190     -0.2457
     52  N        128.1140   26.6970   23.1510 N.am  191  SER191     -0.1938
     53  CA       127.8200   26.9620   21.7580 C.3   191  SER191      0.2055
     54  C        127.5210   28.4290   21.5570 C.2   191  SER191      0.2644
     55  O        126.7660   29.0240   22.3210 O.2   191  SER191     -0.2714
     56  CB       126.6250   26.1240   21.2820 C.3   191  SER191      0.2130
     57  OG       126.9420   24.7370   21.2790 O.3   191  SER191     -0.2179
     58  N        128.1450   29.0230   20.5490 N.am  192  GLY192     -0.1939
     59  CA       127.8950   30.4040   20.2160 C.3   192  GLY192      0.2014
     60  C        128.9310   31.3130   20.7550 C.2   192  GLY192      0.2639
     61  O        129.0050   32.4760   20.3800 O.2   192  GLY192     -0.2714
     62  N        129.7620   30.7670   21.6070 N.am  193  VAL193     -0.1963
     63  CA       130.8240   31.4840   22.2710 C.3   193  VAL193      0.1727
     64  C        131.9680   31.9630   21.3160 C.2   193  VAL193      0.2617
     65  O        132.5940   32.9870   21.5640 O.2   193  VAL193     -0.2715
     66  CB       131.3820   30.6320   23.4500 C.3   193  VAL193      0.0290
     67  CG1      132.8500   30.4250   23.3580 C.3   193  VAL193      0.0023
     68  CG2      130.9570   31.1810   24.7540 C.3   193  VAL193      0.0023
     69  N        132.1940   31.2360   20.2230 N.am  194  GLY194     -0.1940
     70  CA       133.2140   31.6270   19.2760 C.3   194  GLY194      0.2014
     71  C        134.4220   30.6770   19.1340 C.2   194  GLY194      0.2639
     72  O        135.5140   31.1250   18.8790 O.2   194  GLY194     -0.2714
     73  N        134.1930   29.3780   19.2460 N.am  195  LYS195     -0.1963
     74  CA       135.2610   28.4220   19.1280 C.3   195  LYS195      0.1728
     75  C        135.7090   28.2350   17.6770 C.2   195  LYS195      0.2617
     76  O        136.9080   28.2990   17.3800 O.2   195  LYS195     -0.2715
     77  CB       134.8790   27.0930   19.7660 C.3   195  LYS195      0.0311
     78  CG       134.5220   27.2130   21.2750 C.3   195  LYS195      0.0038
     79  CD       134.1720   25.8510   21.8850 C.3   195  LYS195      0.0206
     80  CE       132.9530   25.1930   21.1710 C.3   195  LYS195      0.1093
     81  NZ       131.7070   25.9760   21.3280 N.3   195  LYS195     -0.1314
     82  N        134.7380   28.0190   16.7600 N.am  196  THR196     -0.1937
     83  CA       135.0560   27.8760   15.3310 C.3   196  THR196      0.2028
     84  C        135.7120   29.1550   14.8690 C.2   196  THR196      0.2642
     85  O        136.6900   29.1190   14.1230 O.2   196  THR196     -0.2714
     86  CB       133.7750   27.5960   14.4990 C.3   196  THR196      0.1808
     87  OG1      133.3640   26.2600   14.7040 O.3   196  THR196     -0.2208
     88  CG2      134.0800   27.6230   12.9850 C.3   196  THR196      0.0379
     89  N        135.2190   30.2980   15.4060 N.am  197  ALA197     -0.1977
     90  CA       135.7500   31.6370   15.0700 C.3   197  ALA197      0.1597
     91  C        137.2260   31.7900   15.4020 C.2   197  ALA197      0.2287
     92  O        137.9630   32.4670   14.6850 O.2   197  ALA197     -0.2864
     93  CB       134.9090   32.7680   15.7860 C.3   197  ALA197      0.0319
     94  N        136.3980   20.3680   14.2460 N.3   257  ASP257     -0.1239
     95  CA       135.2970   21.0480   14.9260 C.3   257  ASP257      0.1674
     96  C        134.3640   20.0380   15.5150 C.2   257  ASP257      0.2266
     97  O        134.0780   19.0490   14.9010 O.2   257  ASP257     -0.2867
     98  CB       134.5400   21.9280   13.9410 C.3   257  ASP257      0.1410
     99  CG       133.8120   23.0870   14.6230 C.2   257  ASP257      0.3668
    100  OD1      133.7750   23.1310   15.8710 O.co2 257  ASP257     -0.2456
    101  OD2      133.2670   24.0080   13.9840 O.co2 257  ASP257     -0.2456
    102  N        132.6100   43.5540   19.5520 N.3   329  ILE329     -0.1245
    103  CA       132.4980   42.5650   18.4940 C.3   329  ILE329      0.1561
    104  C        131.4460   42.9890   17.4900 C.2   329  ILE329      0.2260
    105  O        131.7020   42.9930   16.3100 O.2   329  ILE329     -0.2867
    106  CB       132.1920   41.1490   19.0680 C.3   329  ILE329      0.0252
    107  CG1      133.4480   40.5730   19.7450 C.3   329  ILE329      0.0019
    108  CG2      131.7130   40.1590   17.9040 C.3   329  ILE329      0.0019
    109  CD1      133.1680   39.2900   20.6350 C.3   329  ILE329      0.0001
    110  N        131.6200   44.2880   13.4160 N.3   333  LEU333     -0.1245
    111  CA       130.9260   43.6010   12.3300 C.3   333  LEU333      0.1561
    112  C        129.8150   44.4750   11.7610 C.2   333  LEU333      0.2260
    113  O        129.3410   44.2650   10.6180 O.2   333  LEU333     -0.2867
    114  CB       130.3380   42.2900   12.8300 C.3   333  LEU333      0.0270
    115  CG       131.3250   41.2650   13.3850 C.3   333  LEU333      0.0019
    116  CD1      130.5660   40.2340   14.2360 C.3   333  LEU333      0.0001
    117  CD2      132.1450   40.5820   12.2480 C.3   333  LEU333      0.0001
    118  N        128.2430   36.3230   21.7950 N.3   367  PRO367     -0.2102
    119  CA       128.3980   36.9050   20.4640 C.3   367  PRO367      0.1504
    120  C        127.2640   36.4780   19.6160 C.2   367  PRO367      0.2575
    121  O        126.4120   37.2740   19.3000 O.2   367  PRO367     -0.2718
    122  CB       129.7270   36.2710   19.9410 C.3   367  PRO367      0.0282
    123  CG       130.3560   35.6250   21.1230 C.3   367  PRO367      0.0208
    124  CD       129.2380   35.2800   22.0800 C.3   367  PRO367      0.0893
    125  N        127.1790   35.1710   19.4050 N.am  368  ASP368     -0.1974
    126  CA       126.1880   34.5360   18.5470 C.3   368  ASP368      0.1708
    127  C        124.7510   35.0980   18.5790 C.2   368  ASP368      0.2293
    128  O        124.2120   35.4500   17.5550 O.2   368  ASP368     -0.2864
    129  CB       126.1730   33.0430   18.8100 C.3   368  ASP368      0.1436
    130  CG       125.4050   32.2840   17.7840 C.2   368  ASP368      0.3671
    131  OD1      125.7750   32.3520   16.5970 O.co2 368  ASP368     -0.2456
    132  OD2      124.4160   31.5650   18.0670 O.co2 368  ASP368     -0.2456
    133  N        124.6080   38.8600   17.5540 N.3   371  ILE371     -0.1245
    134  CA       124.8260   38.9750   16.1240 C.3   371  ILE371      0.1561
    135  C        123.5800   38.5880   15.3460 C.2   371  ILE371      0.2260
    136  O        123.2260   39.2580   14.3700 O.2   371  ILE371     -0.2867
    137  CB       126.0130   38.1240   15.7110 C.3   371  ILE371      0.0252
    138  CG1      127.3080   38.6830   16.3670 C.3   371  ILE371      0.0019
    139  CG2      126.1510   38.0570   14.0980 C.3   371  ILE371      0.0019
    140  CD1      128.5130   37.8410   16.1720 C.3   371  ILE371      0.0001
@<TRIPOS>BOND
     1     8     6   ar
     2     1     2    1
     3     2     5    1
     4     2     3    1
     5     6     7   ar
     6     6     5    1
     7    15    14    1
     8    15     9    1
     9    14    13    1
    10     3     9   am
    11     3     4    2
    12     9    10    1
    13   113   112    2
    14    13    10    1
    15    10    11    1
    16   112   111    1
    17   117   115    1
    18    11    12    2
    19    11    16   am
    20   111   114    1
    21   111   110    1
    22   114   115    1
    23    16    17    1
    24    88    86    1
    25   115   116    1
    26    98    99    1
    27    98    95    1
    28   101    99   ar
    29   139   137    1
    30    85    84    2
    31    94    95    1
    32   136   135    2
    33    17    20    1
    34    17    18    1
    35    86    87    1
    36    86    83    1
    37    99   100   ar
    38    20    21    1
    39    92    91    2
    40    84    83    1
    41    84    89   am
    42    97    96    2
    43    95    96    1
    44    90    91    1
    45    90    89    1
    46    90    93    1
    47    31    29    1
    48    19    18    2
    49    18    24   am
    50    83    82    1
    51   135   134    1
    52    29    28    1
    53   137   134    1
    54   137   138    1
    55    24    25    1
    56    21    23    1
    57    21    22    1
    58   134   133    1
    59   140   138    1
    60   105   104    2
    61   131   130   ar
    62    82    75   am
    63    28    25    1
    64    28    30    1
    65    25    26    1
    66    76    75    2
    67   104   103    1
    68   128   127    2
    69    75    74    1
    70   130   132   ar
    71   130   129    1
    72   108   106    1
    73    26    27    2
    74   103   106    1
    75   103   102    1
    76   126   127    1
    77   126   129    1
    78   126   125    1
    79    72    71    2
    80   106   107    1
    81    74    73    1
    82    74    77    1
    83    71    73   am
    84    71    70    1
    85    70    69    1
    86   121   120    2
    87   125   120   am
    88   120   119    1
    89   107   109    1
    90    77    78    1
    91   122   119    1
    92   122   123    1
    93    59    58    1
    94    59    60    1
    95    69    64   am
    96    61    60    2
    97   119   118    1
    98    58    54   am
    99    60    62   am
   100   123   124    1
   101    80    81    1
   102    80    79    1
   103    35    34    2
   104    78    79    1
   105    57    56    1
   106    56    53    1
   107    64    65    2
   108    64    63    1
   109    36    33    1
   110    36    37    1
   111    32    33    1
   112    41    40    1
   113    54    53    1
   114    54    55    2
   115    62    63    1
   116    34    33    1
   117    38    37    1
   118    38    39    1
   119    53    52    1
   120   118   124    1
   121    63    66    1
   122    40    39    2
   123    40    42    1
   124    46    45    2
   125    52    45   am
   126    67    66    1
   127    66    68    1
   128    45    44    1
   129    44    43    1
   130    44    47    1
   131    47    48    1
   132    48    49    1
   133    50    49   ar
   134    49    51   ar
