@<TRIPOS>MOLECULE
tmp/1ksfA01.pdb
 102 94 0 0 0
SMALL
GASTEIGER

@<TRIPOS>ATOM
      1  N        150.9110   68.7150    8.3400 N.3    90  ARG90      -0.1231
      2  CA       152.0070   68.0760    7.6080 C.3    90  ARG90       0.1694
      3  C        151.7610   68.1620    6.1070 C.2    90  ARG90       0.2591
      4  O        152.6890   68.3430    5.3380 O.2    90  ARG90      -0.2718
      5  CB       152.1620   66.6160    8.0190 C.3    90  ARG90       0.0321
      6  CG       153.3580   65.9190    7.3980 C.3    90  ARG90       0.0489
      7  CD       153.5760   64.4810    7.9060 C.3    90  ARG90       0.2205
      8  NE       153.8770   64.4620    9.3490 N.pl3  90  ARG90      -0.0865
      9  CZ       153.0850   63.9280   10.2790 C.cat  90  ARG90       0.5346
     10  NH1      151.9400   63.3290    9.9320 N.pl3  90  ARG90       0.1354
     11  NH2      153.4370   63.9840   11.5480 N.pl3  90  ARG90       0.1354
     12  N        150.4910   68.0490    5.7060 N.am   91  ALA91      -0.1980
     13  CA       150.1420   68.1090    4.3070 C.3    91  ALA91       0.1597
     14  C        150.2580   69.5300    3.7580 C.2    91  ALA91       0.2287
     15  O        150.7110   69.7270    2.6330 O.2    91  ALA91      -0.2864
     16  CB       148.7480   67.5490    4.0760 C.3    91  ALA91       0.0319
     17  N        154.0940   70.5420    3.5340 N.3    94  HIS94      -0.1226
     18  CA       154.7320   69.8910    2.4190 C.3    94  HIS94       0.1752
     19  C        154.3580   70.5810    1.1190 C.2    94  HIS94       0.2595
     20  O        155.2360   70.8940    0.2860 O.2    94  HIS94      -0.2718
     21  CB       154.2970   68.4370    2.3550 C.3    94  HIS94       0.0759
     22  CG       155.0160   67.6350    1.3240 C.ar   94  HIS94       0.0818
     23  ND1      155.8460   66.5910    1.6510 N.ar   94  HIS94      -0.2268
     24  CD2      155.0370   67.7260   -0.0340 C.ar   94  HIS94       0.1154
     25  CE1      156.3580   66.0740    0.5420 C.ar   94  HIS94       0.1986
     26  NE2      155.8730   66.7370   -0.4920 N.ar   94  HIS94      -0.2212
     27  N        153.0410   70.8250    0.9410 N.am   95  VAL95      -0.1980
     28  CA       152.5290   71.4570   -0.2660 C.3    95  VAL95       0.1595
     29  C        153.1210   72.8290   -0.4930 C.2    95  VAL95       0.2287
     30  O        153.5670   73.1550   -1.6170 O.2    95  VAL95      -0.2864
     31  CB       150.9660   71.5190   -0.2630 C.3    95  VAL95       0.0276
     32  CG1      150.4480   72.6180   -1.1760 C.3    95  VAL95       0.0022
     33  CG2      150.3860   70.1940   -0.6500 C.3    95  VAL95       0.0022
     34  N        156.6140   72.6170   -1.5480 N.3    98  SER98      -0.1217
     35  CA       156.7570   71.9920   -2.9030 C.3    98  SER98       0.1889
     36  C        156.4210   72.9140   -4.0430 C.2    98  SER98       0.2288
     37  O        156.6330   72.5740   -5.1810 O.2    98  SER98      -0.2866
     38  CB       155.8690   70.7490   -3.0140 C.3    98  SER98       0.2089
     39  OG       156.3420   69.7190   -2.1790 O.3    98  SER98      -0.2183
     40  N        153.2450   74.0910   -4.6380 N.3   100  ARG100     -0.1245
     41  CA       151.9020   73.7980   -5.1170 C.3   100  ARG100      0.1563
     42  C        150.8520   74.7490   -4.5070 C.2   100  ARG100      0.2260
     43  O        150.9940   75.2080   -3.3690 O.2   100  ARG100     -0.2867
     44  CB       151.5320   72.3430   -4.8590 C.3   100  ARG100      0.0307
     45  CG       152.6670   71.3940   -5.0290 C.3   100  ARG100      0.0489
     46  CD       152.3610   70.2380   -5.9010 C.3   100  ARG100      0.2205
     47  NE       152.3790   70.6350   -7.2990 N.pl3 100  ARG100     -0.0865
     48  CZ       152.4330   69.7870   -8.3210 C.cat 100  ARG100      0.5346
     49  NH1      152.4480   68.4750   -8.1030 N.pl3 100  ARG100      0.1354
     50  NH2      152.4660   70.2520   -9.5700 N.pl3 100  ARG100      0.1354
     51  N        147.6790   64.3980   -1.2430 N.3   107  ASN107     -0.1240
     52  CA       148.7310   64.9820   -0.4050 C.3   107  ASN107      0.1653
     53  C        148.5120   64.5930    1.0740 C.2   107  ASN107      0.2266
     54  O        149.4580   64.3500    1.8030 O.2   107  ASN107     -0.2867
     55  CB       148.7450   66.4980   -0.5180 C.3   107  ASN107      0.1155
     56  CG       149.1890   66.9880   -1.8960 C.2   107  ASN107      0.2627
     57  OD1      150.0910   66.4100   -2.5300 O.2   107  ASN107     -0.2716
     58  ND2      148.5700   68.0510   -2.3570 N.am  107  ASN107     -0.0877
     59  N        149.6530   61.1360    1.5340 N.3   110  VAL110     -0.1231
     60  CA       151.1030   61.0470    1.7450 C.3   110  VAL110      0.1692
     61  C        151.4360   61.4090    3.2360 C.2   110  VAL110      0.2591
     62  O        152.2720   60.7930    3.8550 O.2   110  VAL110     -0.2718
     63  CB       151.9110   62.0190    0.8110 C.3   110  VAL110      0.0266
     64  CG1      153.3870   62.0640    1.2360 C.3   110  VAL110      0.0020
     65  CG2      151.8060   61.5960   -0.6550 C.3   110  VAL110      0.0020
     66  N        150.7360   62.3930    3.7780 N.am  111  ALA111     -0.1980
     67  CA       150.9710   62.8140    5.1530 C.3   111  ALA111      0.1597
     68  C        150.6060   61.7120    6.2490 C.2   111  ALA111      0.2287
     69  O        151.1340   61.7360    7.3410 O.2   111  ALA111     -0.2864
     70  CB       150.2600   64.0930    5.4300 C.3   111  ALA111      0.0319
     71  N        154.5400   54.6900    0.6320 N.3   131  ARG131     -0.1245
     72  CA       154.5190   56.1330    0.5290 C.3   131  ARG131      0.1563
     73  C        155.0560   56.5570   -0.8860 C.2   131  ARG131      0.2260
     74  O        154.5490   57.4930   -1.4980 O.2   131  ARG131     -0.2867
     75  CB       155.3800   56.7380    1.6400 C.3   131  ARG131      0.0307
     76  CG       155.4510   58.1930    1.6340 C.3   131  ARG131      0.0489
     77  CD       156.3400   58.7730    2.7180 C.3   131  ARG131      0.2205
     78  NE       156.3070   60.2290    2.7060 N.pl3 131  ARG131     -0.0865
     79  CZ       157.1100   60.9770    1.9760 C.cat 131  ARG131      0.5346
     80  NH1      158.0250   60.4100    1.1980 N.pl3 131  ARG131      0.1354
     81  NH2      156.9960   62.2830    2.0040 N.pl3 131  ARG131      0.1354
     82  N        153.7420   59.0220   -3.8720 N.3   135  VAL135     -0.1245
     83  CA       154.6150   60.1130   -4.3070 C.3   135  VAL135      0.1561
     84  C        154.7870   60.0820   -5.8300 C.2   135  VAL135      0.2260
     85  O        154.6510   61.1040   -6.5050 O.2   135  VAL135     -0.2867
     86  CB       156.0290   60.0560   -3.6170 C.3   135  VAL135      0.0252
     87  CG1      157.0730   60.9490   -4.3950 C.3   135  VAL135      0.0019
     88  CG2      155.9340   60.4960   -2.1520 C.3   135  VAL135      0.0019
     89  N        151.5830   61.2180   -7.6480 N.3   138  ILE138     -0.1231
     90  CA       151.3580   62.6530   -7.6200 C.3   138  ILE138      0.1692
     91  C        152.2640   63.4050   -8.5640 C.2   138  ILE138      0.2592
     92  O        151.8080   64.2190   -9.3610 O.2   138  ILE138     -0.2718
     93  CB       151.5390   63.2030   -6.1800 C.3   138  ILE138      0.0266
     94  CG1      150.4540   62.6520   -5.2600 C.3   138  ILE138      0.0019
     95  CG2      151.4960   64.7760   -6.1780 C.3   138  ILE138      0.0020
     96  CD1      150.5690   63.1220   -3.8200 C.3   138  ILE138      0.0001
     97  N        153.5530   63.1260   -8.4700 N.am  139  SER139     -0.1952
     98  CA       154.5520   63.8190   -9.2510 C.3   139  SER139      0.1924
     99  C        154.3450   63.7200  -10.7380 C.2   139  SER139      0.2314
    100  O        154.0340   64.7140  -11.4060 O.2   139  SER139     -0.2863
    101  CB       155.9530   63.3100   -8.8920 C.3   139  SER139      0.2116
    102  OG       156.2380   63.5280   -7.5270 O.3   139  SER139     -0.2180
@<TRIPOS>BOND
     1   100    99    2
     2    99    98    1
     3    50    48    1
     4    92    91    2
     5    98   101    1
     6    98    97    1
     7   101   102    1
     8    91    97   am
     9    91    90    1
    10    48    49    1
    11    48    47    2
    12    89    90    1
    13    90    93    1
    14    47    46    1
    15    85    84    2
    16    93    95    1
    17    93    94    1
    18    46    45    1
    19    84    83    1
    20    94    96    1
    21    37    36    2
    22    41    44    1
    23    41    40    1
    24    41    42    1
    25    45    44    1
    26    42    43    2
    27    87    86    1
    28    83    82    1
    29    83    86    1
    30    36    35    1
    31    86    88    1
    32    38    35    1
    33    38    39    1
    34    35    34    1
    35    57    56    2
    36    58    56   am
    37    56    55    1
    38    30    29    2
    39    74    73    2
    40    51    52    1
    41    32    31    1
    42    73    72    1
    43    65    63    1
    44    33    31    1
    45    55    52    1
    46    29    28    1
    47    26    24   ar
    48    26    25   ar
    49    52    53    1
    50    28    31    1
    51    28    27    1
    52    24    22   ar
    53    20    19    2
    54    72    71    1
    55    72    75    1
    56    25    23   ar
    57    63    64    1
    58    63    60    1
    59    27    19   am
    60    53    54    2
    61    19    18    1
    62    80    79    1
    63    22    23   ar
    64    22    21    1
    65    59    60    1
    66    76    75    1
    67    76    77    1
    68    60    61    1
    69    79    81    1
    70    79    78    2
    71    21    18    1
    72    18    17    1
    73    15    14    2
    74    78    77    1
    75    61    66   am
    76    61    62    2
    77    14    13    1
    78    66    67    1
    79    16    13    1
    80    13    12    1
    81    67    70    1
    82    67    68    1
    83     4     3    2
    84    12     3   am
    85     3     2    1
    86    68    69    2
    87     6     7    1
    88     6     5    1
    89     2     5    1
    90     2     1    1
    91     7     8    1
    92     8     9    2
    93    10     9    1
    94     9    11    1
