@<TRIPOS>MOLECULE
tmp/1ksfA04.pdb
 145 138 0 0 0
SMALL
GASTEIGER

@<TRIPOS>ATOM
      1  N         81.9080   11.3530   28.1060 N.3   431  LEU431     -0.1231
      2  CA        82.7560   10.1810   27.8960 C.3   431  LEU431      0.1693
      3  C         83.1170    9.5920   29.2300 C.2   431  LEU431      0.2592
      4  O         83.3030    8.3790   29.3590 O.2   431  LEU431     -0.2718
      5  CB        84.0380   10.5680   27.1160 C.3   431  LEU431      0.0284
      6  CG        83.8580   10.9310   25.6250 C.3   431  LEU431      0.0019
      7  CD1       84.9330   11.8630   25.1260 C.3   431  LEU431      0.0001
      8  CD2       83.7650    9.7150   24.7860 C.3   431  LEU431      0.0001
      9  N         83.1920   10.4630   30.2340 N.am  432  VAL432     -0.1966
     10  CA        83.5190   10.0850   31.6000 C.3   432  VAL432      0.1727
     11  C         82.4240   10.6050   32.4790 C.2   432  VAL432      0.2616
     12  O         82.1610   11.7860   32.4970 O.2   432  VAL432     -0.2715
     13  CB        84.8580   10.7450   32.0440 C.3   432  VAL432      0.0290
     14  CG1       85.1370   10.4790   33.5380 C.3   432  VAL432      0.0023
     15  CG2       85.9720   10.2440   31.2070 C.3   432  VAL432      0.0023
     16  N         81.7910    9.7320   33.2310 N.am  433  PHE433     -0.1974
     17  CA        80.6670   10.1560   34.0550 C.3   433  PHE433      0.1639
     18  C         80.9390   10.1120   35.5740 C.2   433  PHE433      0.2290
     19  O         81.8730    9.4850   36.0320 O.2   433  PHE433     -0.2864
     20  CB        79.4230    9.3290   33.7050 C.3   433  PHE433      0.0560
     21  CG        79.2590    9.0750   32.2220 C.ar  433  PHE433     -0.0200
     22  CD1       79.3980    7.7930   31.7030 C.ar  433  PHE433     -0.0042
     23  CD2       79.0110   10.1250   31.3440 C.ar  433  PHE433     -0.0042
     24  CE1       79.2540    7.5570   30.3440 C.ar  433  PHE433     -0.0003
     25  CE2       78.8740    9.8920   29.9740 C.ar  433  PHE433     -0.0003
     26  CZ        78.9850    8.6100   29.4800 C.ar  433  PHE433     -0.0000
     27  N         82.1290   12.3370   37.5510 N.3   435  GLN435     -0.1245
     28  CA        83.2980   13.0520   38.0370 C.3   435  GLN435      0.1566
     29  C         83.3780   14.4900   37.5660 C.2   435  GLN435      0.2260
     30  O         84.4540   14.9740   37.1800 O.2   435  GLN435     -0.2867
     31  CB        84.5930   12.2960   37.7490 C.3   435  GLN435      0.0367
     32  CG        85.0850   11.4430   38.9530 C.3   435  GLN435      0.0905
     33  CD        84.7810   10.0260   38.7980 C.2   435  GLN435      0.2608
     34  OE1       85.2630    9.2030   39.5530 O.2   435  GLN435     -0.2717
     35  NE2       84.0180    9.7010   37.7850 N.am  435  GLN435     -0.0878
     36  N         90.1210    2.5250   42.2820 N.3   469  THR469     -0.1203
     37  CA        90.3770    1.8070   41.0440 C.3   469  THR469      0.1994
     38  C         89.1360    1.7800   40.1100 C.2   469  THR469      0.2618
     39  O         87.9980    1.6030   40.5730 O.2   469  THR469     -0.2717
     40  CB        90.8300    0.3540   41.3760 C.3   469  THR469      0.1784
     41  OG1       92.1500    0.3800   41.9580 O.3   469  THR469     -0.2211
     42  CG2       91.0090   -0.4520   40.1360 C.3   469  THR469      0.0376
     43  N         89.3680    2.0250   38.8070 N.am  470  GLY470     -0.1942
     44  CA        88.3120    1.9520   37.7960 C.3   470  GLY470      0.2014
     45  C         87.2150    3.0010   37.8650 C.2   470  GLY470      0.2639
     46  O         86.0300    2.6840   37.5870 O.2   470  GLY470     -0.2714
     47  N         87.5840    4.2590   38.1850 N.am  471  VAL471     -0.1963
     48  CA        86.5750    5.3450   38.2740 C.3   471  VAL471      0.1727
     49  C         86.7000    6.4470   37.1960 C.2   471  VAL471      0.2617
     50  O         85.8860    7.3650   37.1430 O.2   471  VAL471     -0.2715
     51  CB        86.5050    5.9700   39.6680 C.3   471  VAL471      0.0290
     52  CG1       86.0320    4.9340   40.6930 C.3   471  VAL471      0.0023
     53  CG2       87.8590    6.5780   40.0670 C.3   471  VAL471      0.0023
     54  N         87.7200    6.3450   36.3480 N.am  472  GLY472     -0.1940
     55  CA        87.8760    7.2850   35.2560 C.3   472  GLY472      0.2014
     56  C         89.1460    8.1170   35.2120 C.2   472  GLY472      0.2639
     57  O         89.2440    9.0290   34.4240 O.2   472  GLY472     -0.2714
     58  N         90.1090    7.8060   36.0560 N.am  473  LYS473     -0.1963
     59  CA        91.3660    8.5490   36.0610 C.3   473  LYS473      0.1728
     60  C         92.1270    8.3850   34.7200 C.2   473  LYS473      0.2617
     61  O         92.4510    9.3630   34.0830 O.2   473  LYS473     -0.2715
     62  CB        92.2390    8.1630   37.2610 C.3   473  LYS473      0.0311
     63  CG        91.7040    8.6660   38.5590 C.3   473  LYS473      0.0038
     64  CD        92.4730    8.1320   39.7210 C.3   473  LYS473      0.0206
     65  CE        92.3830    6.6430   39.7550 C.3   473  LYS473      0.1093
     66  NZ        92.9870    6.0920   40.9430 N.3   473  LYS473     -0.1314
     67  N         92.3240    7.1440   34.2810 N.am  474  THR474     -0.1937
     68  CA        93.0320    6.8840   33.0070 C.3   474  THR474      0.2028
     69  C         92.2200    7.3530   31.8090 C.2   474  THR474      0.2642
     70  O         92.7380    8.0020   30.9080 O.2   474  THR474     -0.2714
     71  CB        93.3330    5.4220   32.8640 C.3   474  THR474      0.1808
     72  OG1       94.0750    4.9840   33.9980 O.3   474  THR474     -0.2208
     73  CG2       94.2760    5.1880   31.7170 C.3   474  THR474      0.0379
     74  N         90.9400    7.0650   31.8400 N.am  475  GLU475     -0.1976
     75  CA        90.0430    7.4110   30.7650 C.3   475  GLU475      0.1602
     76  C         90.0310    8.9040   30.5150 C.2   475  GLU475      0.2287
     77  O         90.1270    9.3430   29.3550 O.2   475  GLU475     -0.2864
     78  CB        88.6170    6.8740   31.0610 C.3   475  GLU475      0.0415
     79  CG        87.5730    7.1800   29.9900 C.3   475  GLU475      0.1163
     80  CD        87.8550    6.4800   28.6470 C.2   475  GLU475      0.3649
     81  OE1       87.5150    7.0580   27.6010 O.co2 475  GLU475     -0.2457
     82  OE2       88.3910    5.3580   28.6500 O.co2 475  GLU475     -0.2457
     83  N         98.6060    9.4190   38.1220 N.3   576  THR576     -0.1218
     84  CA        97.4650    8.7830   38.7350 C.3   576  THR576      0.1862
     85  C         97.8660    7.9630   39.9120 C.2   576  THR576      0.2287
     86  O         98.9600    7.4100   39.9500 O.2   576  THR576     -0.2866
     87  CB        96.7440    7.9240   37.7290 C.3   576  THR576      0.1770
     88  OG1       97.6650    7.0150   37.1410 O.3   576  THR576     -0.2211
     89  CG2       96.2820    8.7690   36.5340 C.3   576  THR576      0.0375
     90  N         81.8920    5.5000   41.9620 N.3   612  LEU612     -0.1245
     91  CA        80.7890    5.5880   41.0070 C.3   612  LEU612      0.1561
     92  C         79.4670    5.2810   41.6530 C.2   612  LEU612      0.2260
     93  O         79.3340    4.2910   42.3570 O.2   612  LEU612     -0.2867
     94  CB        81.0140    4.6670   39.8110 C.3   612  LEU612      0.0270
     95  CG        82.3400    4.8100   39.0380 C.3   612  LEU612      0.0019
     96  CD1       82.3250    3.9120   37.8110 C.3   612  LEU612      0.0001
     97  CD2       82.6250    6.2560   38.6410 C.3   612  LEU612      0.0001
     98  N         77.6190    4.3000   32.3230 N.3   620  VAL620     -0.1245
     99  CA        78.7450    3.6030   31.7410 C.3   620  VAL620      0.1561
    100  C         78.2180    2.4290   30.8640 C.2   620  VAL620      0.2260
    101  O         78.6460    2.2540   29.7390 O.2   620  VAL620     -0.2867
    102  CB        79.7280    3.0730   32.8420 C.3   620  VAL620      0.0252
    103  CG1       80.8340    2.1860   32.2170 C.3   620  VAL620      0.0019
    104  CG2       80.3630    4.2580   33.6130 C.3   620  VAL620      0.0019
    105  N         76.7670    3.8380   27.7220 N.3   623  LYS623     -0.1231
    106  CA        77.8260    4.2620   26.8050 C.3   623  LYS623      0.1693
    107  C         78.3150    3.0540   25.9650 C.2   623  LYS623      0.2592
    108  O         78.4550    3.1530   24.7660 O.2   623  LYS623     -0.2718
    109  CB        78.9990    4.8930   27.5690 C.3   623  LYS623      0.0285
    110  CG        80.0510    5.5030   26.6680 C.3   623  LYS623      0.0035
    111  CD        81.2530    5.9570   27.4340 C.3   623  LYS623      0.0206
    112  CE        82.4500    6.2470   26.4890 C.3   623  LYS623      0.1093
    113  NZ        83.7620    6.4700   27.2750 N.3   623  LYS623     -0.1314
    114  N         78.5180    1.9070   26.6290 N.am  624  PHE624     -0.1976
    115  CA        78.9520    0.6970   25.9560 C.3   624  PHE624      0.1639
    116  C         77.8930    0.1850   24.9890 C.2   624  PHE624      0.2290
    117  O         78.2190   -0.3410   23.8920 O.2   624  PHE624     -0.2864
    118  CB        79.3030   -0.3910   26.9640 C.3   624  PHE624      0.0560
    119  CG        80.7100   -0.2790   27.5330 C.ar  624  PHE624     -0.0200
    120  CD1       80.9340    0.2980   28.8030 C.ar  624  PHE624     -0.0042
    121  CD2       81.8070   -0.7840   26.8230 C.ar  624  PHE624     -0.0042
    122  CE1       82.2500    0.3910   29.3400 C.ar  624  PHE624     -0.0003
    123  CE2       83.1570   -0.6940   27.3650 C.ar  624  PHE624     -0.0003
    124  CZ        83.3600   -0.1230   28.6050 C.ar  624  PHE624     -0.0000
    125  N         84.8340    0.1260   37.2110 N.3   660  ALA660     -0.1231
    126  CA        84.2480   -0.2900   35.9690 C.3   660  ALA660      0.1694
    127  C         85.2660   -0.9950   35.0560 C.2   660  ALA660      0.2591
    128  O         85.0370   -1.1320   33.8460 O.2   660  ALA660     -0.2718
    129  CB        83.5980    0.9400   35.2310 C.3   660  ALA660      0.0304
    130  N         86.3920   -1.4300   35.6300 N.am  661  ARG661     -0.1980
    131  CA        87.4140   -2.1660   34.8550 C.3   661  ARG661      0.1597
    132  C         86.9050   -3.4760   34.1760 C.2   661  ARG661      0.2287
    133  O         87.3430   -3.7960   33.1130 O.2   661  ARG661     -0.2864
    134  CB        88.6720   -2.4350   35.6770 C.3   661  ARG661      0.0334
    135  CG        89.8640   -1.5230   35.3430 C.3   661  ARG661      0.0492
    136  CD        91.1290   -1.8820   36.0940 C.3   661  ARG661      0.2205
    137  NE        92.3250   -1.2780   35.5130 N.pl3 661  ARG661     -0.0865
    138  CZ        93.3800   -1.9770   35.0750 C.cat 661  ARG661      0.5346
    139  NH1       93.3720   -3.3100   35.1420 N.pl3 661  ARG661      0.1354
    140  NH2       94.4430   -1.3460   34.5670 N.pl3 661  ARG661      0.1354
    141  N         84.1860   -3.7350   30.1140 N.3   664  ALA664     -0.1245
    142  CA        84.4660   -3.9970   28.6800 C.3   664  ALA664      0.1562
    143  C         84.3350   -5.4650   28.3020 C.2   664  ALA664      0.2260
    144  O         83.8680   -5.7820   27.2180 O.2   664  ALA664     -0.2867
    145  CB        85.8660   -3.4540   28.2790 C.3   664  ALA664      0.0290
@<TRIPOS>BOND
     1   117   116    2
     2   108   107    2
     3     8     6    1
     4   116   115    1
     5     7     6    1
     6     6     5    1
     7   115   114    1
     8   115   118    1
     9   107   114   am
    10   107   106    1
    11   112   113    1
    12   112   111    1
    13   110   111    1
    14   110   109    1
    15   106   109    1
    16   106   105    1
    17   121   123   ar
    18   121   119   ar
    19   118   119    1
    20     5     2    1
    21   144   143    2
    22   123   124   ar
    23   119   120   ar
    24    81    80   ar
    25     2     1    1
    26     2     3    1
    27   145   142    1
    28   143   142    1
    29   124   122   ar
    30    80    82   ar
    31    80    79    1
    32   142   141    1
    33   120   122   ar
    34     3     4    2
    35     3     9   am
    36    77    76    2
    37    26    25   ar
    38    26    24   ar
    39   101   100    2
    40    25    23   ar
    41    79    78    1
    42     9    10    1
    43    24    22   ar
    44    76    75    1
    45    75    78    1
    46    75    74    1
    47   100    99    1
    48    70    69    2
    49    15    13    1
    50    23    21   ar
    51    10    13    1
    52    10    11    1
    53    22    21   ar
    54    73    71    1
    55    99    98    1
    56    99   102    1
    57    69    74   am
    58    69    68    1
    59    13    14    1
    60   103   102    1
    61    21    20    1
    62    11    12    2
    63    11    16   am
    64   102   104    1
    65    71    68    1
    66    71    72    1
    67    68    67    1
    68   133   132    2
    69    16    17    1
    70    20    17    1
    71   128   127    2
    72    17    18    1
    73    61    60    2
    74   132   131    1
    75    67    60   am
    76    57    56    2
    77   140   138    1
    78    60    59    1
    79   131   130    1
    80   131   134    1
    81   127   130   am
    82   127   126    1
    83   138   139    1
    84   138   137    2
    85    56    55    1
    86    56    58   am
    87   129   126    1
    88    55    54    1
    89   135   134    1
    90   135   136    1
    91   137   136    1
    92    18    19    2
    93   126   125    1
    94    58    59    1
    95    59    62    1
    96    54    49   am
    97    89    87    1
    98    88    87    1
    99    50    49    2
   100    30    29    2
   101    49    48    1
   102    62    63    1
   103    27    28    1
   104    29    28    1
   105    46    45    2
   106    87    84    1
   107    31    28    1
   108    31    32    1
   109    35    33   am
   110    44    45    1
   111    44    43    1
   112    96    95    1
   113    45    47   am
   114    83    84    1
   115    47    48    1
   116    48    51    1
   117    63    64    1
   118    97    95    1
   119    84    85    1
   120    33    32    1
   121    33    34    2
   122    43    38   am
   123    95    94    1
   124    51    53    1
   125    51    52    1
   126    64    65    1
   127    65    66    1
   128    94    91    1
   129    85    86    2
   130    38    39    2
   131    38    37    1
   132    42    40    1
   133    91    92    1
   134    91    90    1
   135    37    40    1
   136    37    36    1
   137    40    41    1
   138    92    93    2
