@<TRIPOS>MOLECULE
tmp/1kshA00.pdb
 132 126 0 0 0
SMALL
GASTEIGER

@<TRIPOS>ATOM
      1  N         11.9270    8.0760   36.8110 N.3    11  ASP11      -0.1225
      2  CA        12.1050    7.7590   38.2170 C.3    11  ASP11       0.1805
      3  C         11.0610    6.6970   38.5680 C.2    11  ASP11       0.2598
      4  O          9.9740    6.6880   37.9970 O.2    11  ASP11      -0.2718
      5  CB        11.8800    9.0110   39.0650 C.3    11  ASP11       0.1424
      6  CG        10.5500    9.6870   38.7660 C.2    11  ASP11       0.3668
      7  OD1       10.3260   10.0960   37.6090 O.co2  11  ASP11      -0.2456
      8  OD2        9.7280    9.8110   39.6940 O.co2  11  ASP11      -0.2456
      9  N         11.4040    5.7980   39.4860 N.am   12  ASN12      -0.1960
     10  CA        10.5050    4.7270   39.9240 C.3    12  ASN12       0.1819
     11  C         10.3820    3.5580   38.9420 C.2    12  ASN12       0.2621
     12  O          9.6360    2.6120   39.1950 O.2    12  ASN12      -0.2715
     13  CB         9.1070    5.2990   40.2320 C.3    12  ASN12       0.1195
     14  CG         8.2240    4.3180   40.9830 C.2    12  ASN12       0.2630
     15  OD1        8.6720    3.6630   41.9260 O.2    12  ASN12      -0.2716
     16  ND2        6.9560    4.2220   40.5810 N.am   12  ASN12      -0.0877
     17  N         11.1030    3.6080   37.8230 N.am   13  ALA13      -0.1963
     18  CA        11.0270    2.5120   36.8530 C.3    13  ALA13       0.1728
     19  C         11.6470    1.2330   37.4310 C.2    13  ALA13       0.2617
     20  O         11.2910    0.1210   37.0360 O.2    13  ALA13      -0.2715
     21  CB        11.7250    2.8960   35.5480 C.3    13  ALA13       0.0334
     22  N         12.5810    1.3990   38.3570 N.am   14  GLY14      -0.1940
     23  CA        13.2210    0.2510   38.9790 C.3    14  GLY14       0.2014
     24  C         14.6680    0.0410   38.5790 C.2    14  GLY14       0.2639
     25  O         15.2100   -1.0490   38.7580 O.2    14  GLY14      -0.2714
     26  N         15.2990    1.0920   38.0540 N.am   15  LYS15      -0.1963
     27  CA        16.6910    1.0240   37.6210 C.3    15  LYS15       0.1728
     28  C         17.6430    0.5240   38.7020 C.2    15  LYS15       0.2617
     29  O         18.3990   -0.4220   38.4860 O.2    15  LYS15      -0.2715
     30  CB        17.1540    2.3990   37.1340 C.3    15  LYS15       0.0311
     31  CG        16.3860    2.9250   35.9230 C.3    15  LYS15       0.0038
     32  CD        16.8820    4.3080   35.4790 C.3    15  LYS15       0.0206
     33  CE        16.6760    5.3760   36.5480 C.3    15  LYS15       0.1093
     34  NZ        15.2280    5.7040   36.7910 N.3    15  LYS15      -0.1314
     35  N         17.5970    1.1500   39.8730 N.am   16  THR16      -0.1937
     36  CA        18.4910    0.7740   40.9630 C.3    16  THR16       0.2028
     37  C         18.2590   -0.6320   41.4930 C.2    16  THR16       0.2642
     38  O         19.2150   -1.3470   41.8050 O.2    16  THR16      -0.2714
     39  CB        18.3870    1.8050   42.0920 C.3    16  THR16       0.1808
     40  OG1       18.6900    3.0830   41.5410 O.3    16  THR16      -0.2208
     41  CG2       19.3700    1.5130   43.2240 C.3    16  THR16       0.0379
     42  N         16.9980   -1.0380   41.5800 N.am   17  THR17      -0.1950
     43  CA        16.6890   -2.3780   42.0620 C.3    17  THR17       0.1897
     44  C         17.2410   -3.4060   41.0680 C.2    17  THR17       0.2313
     45  O         17.8110   -4.4160   41.4670 O.2    17  THR17      -0.2863
     46  CB        15.1630   -2.5700   42.2420 C.3    17  THR17       0.1794
     47  OG1       14.6710   -1.5890   43.1590 O.3    17  THR17      -0.2208
     48  CG2       14.8520   -3.9640   42.7900 C.3    17  THR17       0.0378
     49  N         17.8010   -5.6480   47.9750 N.3    27  VAL27      -0.1245
     50  CA        17.0250   -4.5930   47.3310 C.3    27  VAL27       0.1561
     51  C         15.7810   -4.2190   48.1370 C.2    27  VAL27       0.2260
     52  O         14.7020   -4.0110   47.5760 O.2    27  VAL27      -0.2867
     53  CB        16.5740   -5.0180   45.9170 C.3    27  VAL27       0.0252
     54  CG1       17.7890   -5.3570   45.0680 C.3    27  VAL27       0.0019
     55  CG2       15.6340   -6.2130   46.0040 C.3    27  VAL27       0.0019
     56  N         16.2930    0.2850   49.1870 N.3    30  ILE30      -0.1231
     57  CA        16.6260    1.1290   48.0470 C.3    30  ILE30       0.1692
     58  C         15.8360    2.4290   48.0720 C.2    30  ILE30       0.2593
     59  O         14.6130    2.4230   48.1930 O.2    30  ILE30      -0.2718
     60  CB        16.3590    0.3940   46.7140 C.3    30  ILE30       0.0266
     61  CG1       17.4650   -0.6350   46.4710 C.3    30  ILE30       0.0019
     62  CG2       16.2850    1.3870   45.5630 C.3    30  ILE30       0.0020
     63  CD1       17.3530   -1.3590   45.1480 C.3    30  ILE30       0.0001
     64  N         16.5440    3.5460   47.9570 N.am   31  SER31      -0.1939
     65  CA        15.9050    4.8560   47.9580 C.3    31  SER31       0.2040
     66  C         16.1710    5.5510   46.6270 C.2    31  SER31       0.2485
     67  O         16.9710    5.0750   45.8190 O.2    31  SER31      -0.2729
     68  CB        16.4510    5.7030   49.1070 C.3    31  SER31       0.2129
     69  OG        17.8580    5.8080   49.0220 O.3    31  SER31      -0.2179
     70  N         15.4890    6.6780   46.3730 N.am   32  PRO32      -0.2715
     71  CA        15.6980    7.3950   45.1150 C.3    32  PRO32       0.1536
     72  C         17.1530    7.8040   44.8910 C.2    32  PRO32       0.2599
     73  O         17.8380    8.2400   45.8120 O.2    32  PRO32      -0.2715
     74  CB        14.7720    8.5990   45.2550 C.3    32  PRO32       0.0310
     75  CG        13.6250    8.0280   46.0120 C.3    32  PRO32       0.0237
     76  CD        14.3250    7.2230   47.0940 C.3    32  PRO32       0.0939
     77  N         17.6150    7.6580   43.6540 N.am   33  THR33      -0.1951
     78  CA        18.9770    8.0250   43.3000 C.3    33  THR33       0.1897
     79  C         19.0080    9.5040   42.9460 C.2    33  THR33       0.2313
     80  O         18.3260    9.9430   42.0200 O.2    33  THR33      -0.2863
     81  CB        19.4570    7.1990   42.1090 C.3    33  THR33       0.1794
     82  OG1       19.3170    5.8130   42.4360 O.3    33  THR33      -0.2208
     83  CG2       20.9230    7.4940   41.7890 C.3    33  THR33       0.0378
     84  N         16.4370    9.2590   37.5050 N.3    55  GLY55      -0.1225
     85  CA        15.4660    9.6610   36.5050 C.3    55  GLY55       0.1811
     86  C         14.4390   10.7140   36.9010 C.2    55  GLY55       0.2280
     87  O         13.5190   10.9910   36.1210 O.2    55  GLY55      -0.2866
     88  N         10.0250   -3.6590   33.1320 N.3   111  ASN111     -0.1225
     89  CA        10.1100   -4.0870   34.5190 C.3   111  ASN111      0.1785
     90  C          8.7900   -4.1200   35.2950 C.2   111  ASN111      0.2597
     91  O          7.7700   -3.5970   34.8470 O.2   111  ASN111     -0.2718
     92  CB        11.1400   -3.1980   35.2390 C.3   111  ASN111      0.1169
     93  CG        11.5250   -3.7250   36.6030 C.2   111  ASN111      0.2627
     94  OD1       11.8000   -4.9070   36.7640 O.2   111  ASN111     -0.2716
     95  ND2       11.5670   -2.8410   37.5930 N.am  111  ASN111     -0.0877
     96  N          8.8370   -4.7590   36.4590 N.am  112  LYS112     -0.1980
     97  CA         7.6890   -4.9110   37.3500 C.3   112  LYS112      0.1596
     98  C          6.6090   -5.8070   36.7530 C.2   112  LYS112      0.2287
     99  O          5.4150   -5.5840   36.9640 O.2   112  LYS112     -0.2864
    100  CB         7.0980   -3.5420   37.7090 C.3   112  LYS112      0.0298
    101  CG         8.1130   -2.5890   38.3330 C.3   112  LYS112      0.0038
    102  CD         7.4460   -1.4480   39.0750 C.3   112  LYS112      0.0206
    103  CE         8.4540   -0.3840   39.4740 C.3   112  LYS112      0.1093
    104  NZ         7.8490    0.6630   40.3410 N.3   112  LYS112     -0.1314
    105  N          5.8580   -8.4760   37.7090 N.3   114  ASP114     -0.1225
    106  CA         5.2860   -9.2270   38.8220 C.3   114  ASP114      0.1805
    107  C          4.0520   -8.5000   39.3460 C.2   114  ASP114      0.2597
    108  O          3.3620   -9.0000   40.2330 O.2   114  ASP114     -0.2718
    109  CB         6.2880   -9.3430   39.9580 C.3   114  ASP114      0.1424
    110  CG         6.7330   -7.9940   40.4590 C.2   114  ASP114      0.3668
    111  OD1        7.4910   -7.3220   39.7290 O.co2 114  ASP114     -0.2456
    112  OD2        6.3120   -7.6020   41.5650 O.co2 114  ASP114     -0.2456
    113  N          3.7930   -7.3090   38.8120 N.am  115  LEU115     -0.1979
    114  CA         2.6350   -6.5270   39.2310 C.3   115  LEU115      0.1596
    115  C          1.4020   -6.8610   38.3960 C.2   115  LEU115      0.2287
    116  O          1.4950   -7.1140   37.1910 O.2   115  LEU115     -0.2864
    117  CB         2.9290   -5.0280   39.1340 C.3   115  LEU115      0.0297
    118  CG         3.9140   -4.4440   40.1480 C.3   115  LEU115      0.0022
    119  CD1        4.0240   -2.9420   39.9380 C.3   115  LEU115      0.0001
    120  CD2        3.4390   -4.7460   41.5600 C.3   115  LEU115      0.0001
    121  N         12.4460   -6.8990   38.7340 N.3   144  ALA144     -0.1231
    122  CA        13.6590   -6.5930   39.4710 C.3   144  ALA144      0.1694
    123  C         13.6110   -7.1070   40.9110 C.2   144  ALA144      0.2591
    124  O         14.6540   -7.3970   41.4990 O.2   144  ALA144     -0.2718
    125  CB        13.9160   -5.0890   39.4470 C.3   144  ALA144      0.0304
    126  N         12.4100   -7.2350   41.4760 N.am  145  VAL145     -0.1980
    127  CA        12.2860   -7.7240   42.8490 C.3   145  VAL145      0.1595
    128  C         12.5770   -9.2180   42.9750 C.2   145  VAL145      0.2287
    129  O         13.2410   -9.6420   43.9180 O.2   145  VAL145     -0.2864
    130  CB        10.8830   -7.4390   43.4460 C.3   145  VAL145      0.0276
    131  CG1       10.7010   -5.9490   43.6190 C.3   145  VAL145      0.0022
    132  CG2        9.7960   -8.0140   42.5580 C.3   145  VAL145      0.0022
@<TRIPOS>BOND
     1    88    89    1
     2    89    92    1
     3    89    90    1
     4    91    90    2
     5    92    93    1
     6    90    96   am
     7    32    31    1
     8    32    33    1
     9    21    18    1
    10    31    30    1
    11    87    86    2
    12    96    97    1
    13    85    86    1
    14    85    84    1
    15    33    34    1
    16    93    94    2
    17    93    95   am
    18    98    99    2
    19    98    97    1
    20     1     2    1
    21    18    19    1
    22    18    17    1
    23    20    19    2
    24    30    27    1
    25   116   115    2
    26    97   100    1
    27    19    22   am
    28     7     6   ar
    29    27    26    1
    30    27    28    1
    31   100   101    1
    32   105   106    1
    33    17    11   am
    34     4     3    2
    35    26    24   am
    36     2     3    1
    37     2     5    1
    38   101   102    1
    39    22    23    1
    40   115   114    1
    41    29    28    2
    42     3     9   am
    43    24    25    2
    44    24    23    1
    45    28    35   am
    46   121   122    1
    47     6     5    1
    48     6     8   ar
    49   113   114    1
    50   113   107   am
    51   106   107    1
    52   106   109    1
    53    11    12    2
    54    11    10    1
    55   102   103    1
    56   117   114    1
    57   117   118    1
    58   107   108    2
    59   125   122    1
    60   122   123    1
    61   103   104    1
    62     9    10    1
    63   111   110   ar
    64    35    36    1
    65    10    13    1
    66   119   118    1
    67   109   110    1
    68   118   120    1
    69    13    14    1
    70   110   112   ar
    71    16    14   am
    72   123   126   am
    73   123   124    2
    74    36    37    1
    75    36    39    1
    76    14    15    2
    77    44    45    2
    78    44    43    1
    79   126   127    1
    80    37    42   am
    81    37    38    2
    82    40    39    1
    83    42    43    1
    84    83    81    1
    85    80    79    2
    86    43    46    1
    87    39    41    1
    88    81    82    1
    89    81    78    1
    90    46    48    1
    91    46    47    1
    92   132   130    1
    93   127   128    1
    94   127   130    1
    95    79    78    1
    96   128   129    2
    97    78    77    1
    98   130   131    1
    99    77    72   am
   100    72    71    1
   101    72    73    2
   102    54    53    1
   103    71    74    1
   104    71    70    1
   105    63    61    1
   106    74    75    1
   107    62    60    1
   108    67    66    2
   109    53    55    1
   110    53    50    1
   111    75    76    1
   112    70    66   am
   113    70    76    1
   114    61    60    1
   115    66    65    1
   116    60    57    1
   117    50    49    1
   118    50    51    1
   119    52    51    2
   120    64    65    1
   121    64    58   am
   122    65    68    1
   123    57    58    1
   124    57    56    1
   125    58    59    2
   126    69    68    1
