@<TRIPOS>MOLECULE
tmp/1kskA00.pdb
 117 111 0 0 0
SMALL
GASTEIGER

@<TRIPOS>ATOM
      1  N         43.7590   11.9900   -2.8350 N.3   101  ARG101     -0.1231
      2  CA        43.7970   11.4960   -1.4690 C.3   101  ARG101      0.1694
      3  C         45.2030   11.1960   -0.9620 C.2   101  ARG101      0.2592
      4  O         46.1180   10.9890   -1.7560 O.2   101  ARG101     -0.2718
      5  CB        42.9010   10.2470   -1.3660 C.3   101  ARG101      0.0321
      6  CG        41.4070   10.6030   -1.2640 C.3   101  ARG101      0.0489
      7  CD        40.4700    9.9360   -2.2860 C.3   101  ARG101      0.2205
      8  NE        40.1250    8.5590   -1.9650 N.pl3 101  ARG101     -0.0865
      9  CZ        38.9600    7.9740   -2.2510 C.cat 101  ARG101      0.5346
     10  NH1       37.9830    8.6380   -2.8640 N.pl3 101  ARG101      0.1354
     11  NH2       38.7750    6.6970   -1.9470 N.pl3 101  ARG101      0.1354
     12  N         45.3710   11.2000    0.3650 N.am  102  LEU102     -0.1966
     13  CA        46.6600   10.8890    1.0040 C.3   102  LEU102      0.1728
     14  C         46.3670    9.8220    2.0530 C.2   102  LEU102      0.2616
     15  O         45.3250    9.8660    2.7100 O.2   102  LEU102     -0.2715
     16  CB        47.2700   12.1340    1.6850 C.3   102  LEU102      0.0311
     17  CG        47.8470   13.2470    0.7860 C.3   102  LEU102      0.0022
     18  CD1       48.4000   14.3750    1.6560 C.3   102  LEU102      0.0001
     19  CD2       48.9590   12.6790   -0.1150 C.3   102  LEU102      0.0001
     20  N         47.2750    8.8670    2.2060 N.am  103  ASP103     -0.1971
     21  CA        47.0900    7.7860    3.1750 C.3   103  ASP103      0.1709
     22  C         47.0090    8.3110    4.6100 C.2   103  ASP103      0.2293
     23  O         47.2880    9.4870    4.8670 O.2   103  ASP103     -0.2864
     24  CB        48.2310    6.7680    3.0580 C.3   103  ASP103      0.1436
     25  CG        47.8150    5.3600    3.4990 C.2   103  ASP103      0.3671
     26  OD1       46.6220    5.1300    3.8260 O.co2 103  ASP103     -0.2456
     27  OD2       48.7000    4.4810    3.5120 O.co2 103  ASP103     -0.2456
     28  N         50.2360   10.0410    6.0100 N.3   106  THR106     -0.1218
     29  CA        50.9270   10.9610    5.1100 C.3   106  THR106      0.1862
     30  C         50.3100   12.3120    5.4400 C.2   106  THR106      0.2287
     31  O         49.0960   12.4210    5.6290 O.2   106  THR106     -0.2866
     32  CB        50.6730   10.6240    3.6220 C.3   106  THR106      0.1770
     33  OG1       51.2010    9.3260    3.3410 O.3   106  THR106     -0.2211
     34  CG2       51.3570   11.6360    2.7110 C.3   106  THR106      0.0375
     35  N         53.3370   16.8890   -8.5620 N.3   130  LYS130     -0.1245
     36  CA        53.1680   16.9530   -7.1190 C.3   130  LYS130      0.1561
     37  C         54.5470   16.8370   -6.4870 C.2   130  LYS130      0.2260
     38  O         55.3570   16.0300   -6.9320 O.2   130  LYS130     -0.2867
     39  CB        52.2720   15.8210   -6.6070 C.3   130  LYS130      0.0271
     40  CG        50.7840   16.1270   -6.6700 C.3   130  LYS130      0.0035
     41  CD        50.1770   15.7380   -7.9940 C.3   130  LYS130      0.0206
     42  CE        50.3210   14.2470   -8.2190 C.3   130  LYS130      0.1093
     43  NZ        50.2260   13.5670   -6.9000 N.3   130  LYS130     -0.1314
     44  N         56.8250   16.2210   -2.9250 N.3   132  TYR132     -0.1241
     45  CA        56.8190   15.6780   -1.5710 C.3   132  TYR132      0.1605
     46  C         58.1540   15.8410   -0.8640 C.2   132  TYR132      0.2264
     47  O         59.2090   15.8500   -1.5110 O.2   132  TYR132     -0.2867
     48  CB        56.5200   14.1710   -1.5930 C.3   132  TYR132      0.0534
     49  CG        55.1950   13.7920   -2.1920 C.ar  132  TYR132     -0.0201
     50  CD1       55.0200   13.6960   -3.5840 C.ar  132  TYR132     -0.0009
     51  CD2       54.1110   13.5270   -1.3760 C.ar  132  TYR132     -0.0009
     52  CE1       53.7830   13.3470   -4.1290 C.ar  132  TYR132      0.0417
     53  CE2       52.8720   13.1800   -1.9110 C.ar  132  TYR132      0.0417
     54  CZ        52.7160   13.0920   -3.2760 C.ar  132  TYR132      0.1957
     55  OH        51.4700   12.7860   -3.7620 O.3   132  TYR132     -0.2866
     56  N         56.9370   14.1670   -8.8810 N.3   178  ILE178     -0.1245
     57  CA        56.4660   13.1550   -9.8270 C.3   178  ILE178      0.1561
     58  C         55.2710   13.7350  -10.5600 C.2   178  ILE178      0.2260
     59  O         54.6500   14.6770  -10.0700 O.2   178  ILE178     -0.2867
     60  CB        56.0140   11.8380   -9.1150 C.3   178  ILE178      0.0252
     61  CG1       54.9940   12.1670   -8.0080 C.3   178  ILE178      0.0019
     62  CG2       57.2320   11.0950   -8.5700 C.3   178  ILE178      0.0019
     63  CD1       54.4640   10.9580   -7.2210 C.3   178  ILE178      0.0001
     64  N         49.9570    6.9630   -9.2340 N.3   182  ARG182     -0.1245
     65  CA        49.7670    5.5500   -8.8950 C.3   182  ARG182      0.1563
     66  C         49.5830    5.3340   -7.4010 C.2   182  ARG182      0.2260
     67  O         50.0070    6.1510   -6.5800 O.2   182  ARG182     -0.2867
     68  CB        50.9480    4.7020   -9.3690 C.3   182  ARG182      0.0307
     69  CG        51.0670    4.5750  -10.8810 C.3   182  ARG182      0.0489
     70  CD        51.4820    3.1540  -11.2420 C.3   182  ARG182      0.2205
     71  NE        52.6760    3.1170  -12.0730 N.pl3 182  ARG182     -0.0865
     72  CZ        53.2810    1.9950  -12.4510 C.cat 182  ARG182      0.5346
     73  NH1       54.3660    2.0680  -13.2090 N.pl3 182  ARG182      0.1354
     74  NH2       52.8070    0.8080  -12.0660 N.pl3 182  ARG182      0.1354
     75  N         50.1500    4.5040   -3.8040 N.3   184  HIS184     -0.1226
     76  CA        51.3300    4.4230   -2.9440 C.3   184  HIS184      0.1752
     77  C         52.6290    4.4930   -3.7380 C.2   184  HIS184      0.2596
     78  O         53.6130    3.8340   -3.3900 O.2   184  HIS184     -0.2718
     79  CB        51.3150    3.1110   -2.1520 C.3   184  HIS184      0.0759
     80  CG        50.3200    3.0860   -1.0310 C.ar  184  HIS184      0.0818
     81  ND1       50.1980    2.0130   -0.1730 N.ar  184  HIS184     -0.2268
     82  CD2       49.4050    3.9980   -0.6240 C.ar  184  HIS184      0.1154
     83  CE1       49.2510    2.2650    0.7130 C.ar  184  HIS184      0.1986
     84  NE2       48.7530    3.4640    0.4630 N.ar  184  HIS184     -0.2212
     85  N         52.6400    5.3100   -4.7810 N.am  185  GLN185     -0.1965
     86  CA        53.8010    5.4120   -5.6430 C.3   185  GLN185      0.1733
     87  C         55.1240    5.7640   -4.9890 C.2   185  GLN185      0.2616
     88  O         56.1350    5.1200   -5.2650 O.2   185  GLN185     -0.2715
     89  CB        53.5310    6.3930   -6.7830 C.3   185  GLN185      0.0408
     90  CG        54.4870    6.1730   -7.9670 C.3   185  GLN185      0.0908
     91  CD        54.1440    7.0090   -9.1770 C.2   185  GLN185      0.2608
     92  OE1       52.9700    7.2400   -9.4730 O.2   185  GLN185     -0.2717
     93  NE2       55.1670    7.4510   -9.9020 N.am  185  GLN185     -0.0878
     94  N         55.1330    6.7690   -4.1140 N.am  186  VAL186     -0.1963
     95  CA        56.3840    7.1770   -3.4850 C.3   186  VAL186      0.1727
     96  C         56.9880    6.0850   -2.6200 C.2   186  VAL186      0.2616
     97  O         58.1840    5.8010   -2.7120 O.2   186  VAL186     -0.2715
     98  CB        56.2160    8.4640   -2.6320 C.3   186  VAL186      0.0290
     99  CG1       57.5750    8.8690   -2.0390 C.3   186  VAL186      0.0023
    100  CG2       55.6640    9.6040   -3.4940 C.3   186  VAL186      0.0023
    101  N         56.1780    5.4580   -1.7800 N.am  187  LYS187     -0.1977
    102  CA        56.7250    4.4020   -0.9390 C.3   187  LYS187      0.1596
    103  C         57.2410    3.2220   -1.7670 C.2   187  LYS187      0.2287
    104  O         58.2720    2.6320   -1.4510 O.2   187  LYS187     -0.2864
    105  CB        55.6750    3.9080    0.0500 C.3   187  LYS187      0.0298
    106  CG        55.1880    4.9960    0.9760 C.3   187  LYS187      0.0038
    107  CD        54.2470    4.4380    2.0340 C.3   187  LYS187      0.0206
    108  CE        53.8260    5.5350    2.9960 C.3   187  LYS187      0.1093
    109  NZ        52.7890    5.0710    3.9580 N.3   187  LYS187     -0.1314
    110  N         56.2400   11.1150    5.1570 N.3   199  LEU199     -0.1245
    111  CA        55.9310   11.6570    3.8350 C.3   199  LEU199      0.1561
    112  C         55.0100   12.8700    4.0070 C.2   199  LEU199      0.2260
    113  O         53.9610   12.7750    4.6530 O.2   199  LEU199     -0.2867
    114  CB        55.2620   10.5620    2.9920 C.3   199  LEU199      0.0270
    115  CG        55.0090   10.8310    1.5080 C.3   199  LEU199      0.0019
    116  CD1       56.3200   11.1960    0.7820 C.3   199  LEU199      0.0001
    117  CD2       54.3570    9.5750    0.9080 C.3   199  LEU199      0.0001
@<TRIPOS>BOND
     1    73    72    1
     2    72    71    2
     3    72    74    1
     4    71    70    1
     5    70    69    1
     6    69    68    1
     7    58    59    2
     8    58    57    1
     9    93    91   am
    10    57    60    1
    11    57    56    1
    12    92    91    2
    13    68    65    1
    14    64    65    1
    15    91    90    1
    16    60    62    1
    17    60    61    1
    18    65    66    1
    19    35    36    1
    20    42    41    1
    21    42    43    1
    22    61    63    1
    23    41    40    1
    24    90    89    1
    25    66    67    2
    26    36    39    1
    27    36    37    1
    28    38    37    2
    29    89    86    1
    30    40    39    1
    31    86    87    1
    32    86    85    1
    33    88    87    2
    34    87    94   am
    35    85    77   am
    36    52    50   ar
    37    52    54   ar
    38    94    95    1
    39    75    76    1
    40    55    54    1
    41    77    78    2
    42    77    76    1
    43    50    49   ar
    44   100    98    1
    45    95    98    1
    46    95    96    1
    47    54    53   ar
    48    76    79    1
    49    44    45    1
    50    10     9    1
    51     1     2    1
    52    97    96    2
    53    98    99    1
    54    96   101   am
    55     7     8    1
    56     7     6    1
    57     9     8    2
    58     9    11    1
    59    49    48    1
    60    49    51   ar
    61    79    80    1
    62    53    51   ar
    63   101   102    1
    64   103   104    2
    65   103   102    1
    66     4     3    2
    67    48    45    1
    68    45    46    1
    69    47    46    2
    70     2     5    1
    71     2     3    1
    72     5     6    1
    73    80    82   ar
    74    80    81   ar
    75     3    12   am
    76   102   105    1
    77    82    84   ar
    78    81    83   ar
    79    19    17    1
    80   105   106    1
    81    12    13    1
    82    84    83   ar
    83   116   115    1
    84    17    18    1
    85    17    16    1
    86   117   115    1
    87   106   107    1
    88    13    16    1
    89    13    14    1
    90   115   114    1
    91   107   108    1
    92    14    20   am
    93    14    15    2
    94    20    21    1
    95    34    32    1
    96   114   111    1
    97   108   109    1
    98    24    21    1
    99    24    25    1
   100    21    22    1
   101    33    32    1
   102    25    27   ar
   103    25    26   ar
   104    32    29    1
   105   111   112    1
   106   111   110    1
   107   112   113    2
   108    22    23    2
   109    29    30    1
   110    29    28    1
   111    30    31    2
