@<TRIPOS>MOLECULE
tmp/1ksnA00.pdb
 208 206 0 0 0
SMALL
GASTEIGER

@<TRIPOS>ATOM
      1  N         13.8240   10.4940   14.2930 N.3    42  HIS42      -0.1241
      2  CA        12.3720   10.4920   14.2700 C.3    42  HIS42       0.1621
      3  C         11.7870   11.8620   14.5530 C.2    42  HIS42       0.2264
      4  O         10.6280   12.1140   14.2470 O.2    42  HIS42      -0.2867
      5  CB        11.8090    9.4140   15.2220 C.3    42  HIS42       0.0745
      6  CG        11.5890    9.8600   16.6390 C.ar   42  HIS42       0.0817
      7  ND1       12.4090    9.4630   17.6770 N.ar   42  HIS42      -0.2268
      8  CD2       10.5830   10.5670   17.2100 C.ar   42  HIS42       0.1154
      9  CE1       11.9160    9.9030   18.8200 C.ar   42  HIS42       0.1986
     10  NE2       10.8080   10.5760   18.5660 N.ar   42  HIS42      -0.2212
     11  N          9.5390    2.5460   11.2950 N.3    83  GLU83      -0.1231
     12  CA         8.7170    1.4910   11.8760 C.3    83  GLU83       0.1699
     13  C          9.2900    0.9160   13.1640 C.2    83  GLU83       0.2593
     14  O          8.5610    0.7000   14.1250 O.2    83  GLU83      -0.2718
     15  CB         8.5180    0.3650   10.8570 C.3    83  GLU83       0.0402
     16  CG         7.9590   -0.9230   11.4450 C.3    83  GLU83       0.1161
     17  CD         6.4680   -0.8460   11.7120 C.2    83  GLU83       0.3649
     18  OE1        6.0740   -0.8460   12.8970 O.co2  83  GLU83      -0.2457
     19  OE2        5.6910   -0.7860   10.7360 O.co2  83  GLU83      -0.2457
     20  N         10.5980    0.6780   13.1740 N.am   84  THR84      -0.1939
     21  CA        11.2780    0.0980   14.3250 C.3    84  THR84       0.2028
     22  C         12.0450    1.0980   15.1920 C.2    84  THR84       0.2642
     23  O         12.4490    0.7730   16.3140 O.2    84  THR84      -0.2714
     24  CB        12.2530   -1.0000   13.8620 C.3    84  THR84       0.1808
     25  OG1       13.3970   -0.4010   13.2440 O.3    84  THR84      -0.2208
     26  CG2       11.5780   -1.9140   12.8510 C.3    84  THR84       0.0379
     27  N         12.2290    2.3110   14.6720 N.am   85  TYR85      -0.1973
     28  CA        12.9590    3.3730   15.3620 C.3    85  TYR85       0.1639
     29  C         14.4200    3.0030   15.4170 C.2    85  TYR85       0.2290
     30  O         15.1520    3.4980   16.2610 O.2    85  TYR85      -0.2864
     31  CB        12.4720    3.5720   16.7970 C.3    85  TYR85       0.0560
     32  CG        11.1260    4.2450   16.9490 C.ar   85  TYR85      -0.0198
     33  CD1        9.9480    3.4960   16.8980 C.ar   85  TYR85      -0.0009
     34  CD2       11.0310    5.6100   17.2320 C.ar   85  TYR85      -0.0009
     35  CE1        8.7130    4.0780   17.1340 C.ar   85  TYR85       0.0417
     36  CE2        9.7980    6.2060   17.4710 C.ar   85  TYR85       0.0417
     37  CZ         8.6430    5.4300   17.4230 C.ar   85  TYR85       0.1957
     38  OH         7.4160    5.9910   17.6920 O.3    85  TYR85      -0.2866
     39  N          6.7840   15.8360   28.4450 N.3   132  ARG132     -0.1245
     40  CA         5.6950   15.6870   29.4020 C.3   132  ARG132      0.1563
     41  C          6.1800   15.2710   30.7780 C.2   132  ARG132      0.2260
     42  O          7.2360   14.6540   30.9220 O.2   132  ARG132     -0.2867
     43  CB         4.6750   14.6680   28.9020 C.3   132  ARG132      0.0307
     44  CG         4.5700   14.5950   27.3980 C.3   132  ARG132      0.0489
     45  CD         3.5770   13.5330   26.9750 C.3   132  ARG132      0.2205
     46  NE         2.8190   13.9380   25.7970 N.pl3 132  ARG132     -0.0865
     47  CZ         1.6300   13.4440   25.4680 C.cat 132  ARG132      0.5346
     48  NH1        1.0550   12.5210   26.2300 N.pl3 132  ARG132      0.1354
     49  NH2        1.0160   13.8750   24.3760 N.pl3 132  ARG132      0.1354
     50  N          2.7340   10.6140   31.7440 N.3   135  GLU135     -0.1245
     51  CA         2.4200    9.9310   30.4900 C.3   135  GLU135      0.1567
     52  C          1.2190   10.5230   29.7570 C.2   135  GLU135      0.2260
     53  O          1.1470   10.4720   28.5340 O.2   135  GLU135     -0.2867
     54  CB         2.1730    8.4430   30.7500 C.3   135  GLU135      0.0388
     55  CG         1.6450    7.6690   29.5460 C.3   135  GLU135      0.1160
     56  CD         1.7560    6.1550   29.7150 C.2   135  GLU135      0.3649
     57  OE1        2.1910    5.6890   30.7920 O.co2 135  GLU135     -0.2457
     58  OE2        1.4070    5.4270   28.7650 O.co2 135  GLU135     -0.2457
     59  N          8.7170   -4.8960   21.7930 N.3   162  PHE162     -0.1227
     60  CA         9.2820   -4.8430   20.4540 C.3   162  PHE162      0.1736
     61  C         10.7800   -5.1070   20.4860 C.2   162  PHE162      0.2595
     62  O         11.3860   -5.1900   21.5560 O.2   162  PHE162     -0.2718
     63  CB         8.9810   -3.4820   19.8240 C.3   162  PHE162      0.0547
     64  CG         7.5370   -3.0850   19.9260 C.ar  162  PHE162     -0.0202
     65  CD1        6.6020   -3.5860   19.0320 C.ar  162  PHE162     -0.0042
     66  CD2        7.1040   -2.2390   20.9410 C.ar  162  PHE162     -0.0042
     67  CE1        5.2480   -3.2510   19.1520 C.ar  162  PHE162     -0.0003
     68  CE2        5.7520   -1.8990   21.0700 C.ar  162  PHE162     -0.0003
     69  CZ         4.8260   -2.4040   20.1760 C.ar  162  PHE162     -0.0000
     70  N         11.3720   -5.2390   19.3060 N.am  163  ILE163     -0.1980
     71  CA        12.7970   -5.5230   19.1920 C.3   163  ILE163      0.1595
     72  C         13.7410   -4.4190   19.6620 C.2   163  ILE163      0.2287
     73  O         13.5820   -3.2510   19.3080 O.2   163  ILE163     -0.2864
     74  CB        13.1610   -5.8810   17.7390 C.3   163  ILE163      0.0276
     75  CG1       12.3510   -7.1010   17.2960 C.3   163  ILE163      0.0022
     76  CG2       14.6630   -6.1300   17.6220 C.3   163  ILE163      0.0022
     77  CD1       12.8560   -8.4070   17.8550 C.3   163  ILE163      0.0001
     78  N         10.8720    8.4880   34.4240 N.3   179  ASP179     -0.1225
     79  CA        11.2250    8.1000   33.0550 C.3   179  ASP179      0.1805
     80  C         11.1030    9.3080   32.1360 C.2   179  ASP179      0.2598
     81  O         10.4710   10.3020   32.4870 O.2   179  ASP179     -0.2718
     82  CB        10.2850    6.9840   32.5700 C.3   179  ASP179      0.1424
     83  CG        10.6560    6.4390   31.1980 C.2   179  ASP179      0.3668
     84  OD1       11.8270    6.5530   30.7830 O.co2 179  ASP179     -0.2456
     85  OD2        9.7610    5.8800   30.5260 O.co2 179  ASP179     -0.2456
     86  N         11.7340    9.2290   30.9700 N.am  180  ALA180     -0.1966
     87  CA        11.6500   10.3020   30.0000 C.3   180  ALA180      0.1728
     88  C         10.2430   10.1620   29.4400 C.2   180  ALA180      0.2616
     89  O          9.5020    9.2730   29.8520 O.2   180  ALA180     -0.2715
     90  CB        12.6850   10.1030   28.9080 C.3   180  ALA180      0.0334
     91  N          9.8640   11.0280   28.5090 N.am  181  CYS181     -0.1954
     92  CA         8.5290   10.9540   27.9330 C.3   181  CYS181      0.1843
     93  C          8.4530   11.8210   26.6930 C.2   181  CYS181      0.2625
     94  O          9.4190   12.5000   26.3630 O.2   181  CYS181     -0.2714
     95  CB         7.4890   11.4120   28.9530 C.3   181  CYS181      0.0997
     96  SG         5.8370   10.7190   28.6440 S.3   181  CYS181     -0.0797
     97  N          7.3060   11.7940   26.0130 N.am  182  GLN182     -0.1977
     98  CA         7.0980   12.5740   24.7840 C.3   182  GLN182      0.1601
     99  C          7.5410   14.0080   24.9470 C.2   182  GLN182      0.2287
    100  O          7.2220   14.6540   25.9440 O.2   182  GLN182     -0.2864
    101  CB         5.6230   12.5740   24.3690 C.3   182  GLN182      0.0394
    102  CG         5.3900   12.2330   22.9040 C.3   182  GLN182      0.0908
    103  CD         3.9200   12.0260   22.5830 C.2   182  GLN182      0.2608
    104  OE1        3.4910   10.9220   22.2330 O.2   182  GLN182     -0.2717
    105  NE2        3.1380   13.0920   22.7000 N.am  182  GLN182     -0.0878
    106  N         12.2690   13.3310   23.5100 N.3   185  SER185     -0.1217
    107  CA        12.9850   12.6500   22.4280 C.3   185  SER185      0.1889
    108  C         13.9760   13.5600   21.7140 C.2   185  SER185      0.2288
    109  O         13.7130   14.7390   21.5170 O.2   185  SER185     -0.2866
    110  CB        11.9810   12.0900   21.4230 C.3   185  SER185      0.2089
    111  OG        10.6860   12.0420   22.0010 O.3   185  SER185     -0.2183
    112  N         17.4230   10.3420   23.8090 N.3   203  VAL203     -0.1231
    113  CA        16.0800    9.9070   24.1770 C.3   203  VAL203      0.1692
    114  C         15.3990    9.4570   22.8800 C.2   203  VAL203      0.2593
    115  O         15.2240   10.2440   21.9500 O.2   203  VAL203     -0.2718
    116  CB        15.2730   11.0480   24.8340 C.3   203  VAL203      0.0266
    117  CG1       13.9180   10.5340   25.2860 C.3   203  VAL203      0.0020
    118  CG2       16.0350   11.6060   26.0110 C.3   203  VAL203      0.0020
    119  N         15.0350    8.1820   22.8090 N.am  204  SER204     -0.1938
    120  CA        14.4080    7.6540   21.6060 C.3   204  SER204      0.2055
    121  C         12.9210    7.3620   21.7460 C.2   204  SER204      0.2643
    122  O         12.0860    8.0670   21.1800 O.2   204  SER204     -0.2714
    123  CB        15.1280    6.3840   21.1740 C.3   204  SER204      0.2130
    124  OG        15.1700    6.2910   19.7700 O.3   204  SER204     -0.2179
    125  N         12.5970    6.3100   22.4920 N.am  205  TRP205     -0.1959
    126  CA        11.2100    5.9200   22.6840 C.3   205  TRP205      0.1771
    127  C         11.0250    5.0780   23.9250 C.2   205  TRP205      0.2620
    128  O         11.9490    4.8730   24.7130 O.2   205  TRP205     -0.2715
    129  CB        10.6980    5.1260   21.4750 C.3   205  TRP205      0.0590
    130  CG        11.4410    3.8220   21.2120 C.ar  205  TRP205      0.0006
    131  CD1       12.6150    3.6740   20.5240 C.ar  205  TRP205      0.0946
    132  CD2       11.0400    2.4950   21.6020 C.ar  205  TRP205      0.0152
    133  NE1       12.9650    2.3480   20.4600 N.ar  205  TRP205     -0.2442
    134  CE2       12.0200    1.6020   21.1120 C.ar  205  TRP205      0.0810
    135  CE3        9.9480    1.9760   22.3180 C.ar  205  TRP205      0.0012
    136  CZ2       11.9430    0.2180   21.3130 C.ar  205  TRP205      0.0191
    137  CZ3        9.8710    0.5980   22.5170 C.ar  205  TRP205      0.0001
    138  CH2       10.8650   -0.2630   22.0140 C.ar  205  TRP205      0.0015
    139  N          9.8060    4.5900   24.0790 N.am  206  GLY206     -0.1940
    140  CA         9.4630    3.7610   25.2080 C.3   206  GLY206      0.2014
    141  C          7.9810    3.5200   25.0700 C.2   206  GLY206      0.2639
    142  O          7.2960    4.2880   24.3860 O.2   206  GLY206     -0.2714
    143  N          7.4820    2.4600   25.6930 N.am  207  GLU207     -0.1963
    144  CA         6.0600    2.1560   25.6240 C.3   207  GLU207      0.1733
    145  C          5.3650    2.9970   26.6750 C.2   207  GLU207      0.2617
    146  O          5.3250    2.6310   27.8450 O.2   207  GLU207     -0.2715
    147  CB         5.8200    0.6730   25.8950 C.3   207  GLU207      0.0429
    148  CG         5.7630   -0.1770   24.6400 C.3   207  GLU207      0.1163
    149  CD         5.9260   -1.6440   24.9590 C.2   207  GLU207      0.3649
    150  OE1        4.9370   -2.2670   25.4040 O.co2 207  GLU207     -0.2457
    151  OE2        7.0450   -2.1710   24.7780 O.co2 207  GLU207     -0.2457
    152  N          4.8070    4.1240   26.2540 N.am  208  GLY208     -0.1940
    153  CA         4.1690    5.0060   27.2090 C.3   208  GLY208      0.2014
    154  C          5.2830    5.6720   27.9970 C.2   208  GLY208      0.2639
    155  O          6.3310    5.9930   27.4410 O.2   208  GLY208     -0.2714
    156  N          5.0770    5.8660   29.2930 N.am  209  CYS209     -0.1967
    157  CA         6.0860    6.5060   30.1300 C.3   209  CYS209      0.1712
    158  C          5.9830    6.0400   31.5750 C.2   209  CYS209      0.2296
    159  O          4.8940    5.9650   32.1380 O.2   209  CYS209     -0.2864
    160  CB         5.9340    8.0350   30.0790 C.3   209  CYS209      0.0983
    161  SG         6.2160    8.7400   28.4320 S.3   209  CYS209     -0.0798
    162  N          5.9730    3.3540   32.7530 N.3   211  ARG211     -0.1245
    163  CA         5.1270    2.1730   32.8680 C.3   211  ARG211      0.1563
    164  C          5.8240    1.0650   33.6400 C.2   211  ARG211      0.2260
    165  O          7.0400    0.9160   33.5710 O.2   211  ARG211     -0.2867
    166  CB         4.7500    1.6580   31.4830 C.3   211  ARG211      0.0307
    167  CG         3.5300    2.3370   30.8860 C.3   211  ARG211      0.0489
    168  CD         3.0450    1.6040   29.6470 C.3   211  ARG211      0.2205
    169  NE         2.1530    2.4250   28.8360 N.pl3 211  ARG211     -0.0865
    170  CZ         1.6530    2.0480   27.6640 C.cat 211  ARG211      0.5346
    171  NH1        1.9560    0.8580   27.1580 N.pl3 211  ARG211      0.1354
    172  NH2        0.8520    2.8630   26.9920 N.pl3 211  ARG211      0.1354
    173  N         10.7630    0.1740   30.1550 N.3   215  TYR215     -0.1227
    174  CA        11.8680    1.1030   30.3690 C.3   215  TYR215      0.1736
    175  C         11.8480    2.2100   29.3410 C.2   215  TYR215      0.2596
    176  O         10.9030    2.3580   28.5740 O.2   215  TYR215     -0.2718
    177  CB        13.2160    0.3920   30.2560 C.3   215  TYR215      0.0548
    178  CG        13.4040   -0.6660   31.2910 C.ar  215  TYR215     -0.0200
    179  CD1       13.5570   -0.3280   32.6330 C.ar  215  TYR215     -0.0009
    180  CD2       13.3630   -2.0120   30.9450 C.ar  215  TYR215     -0.0009
    181  CE1       13.6570   -1.3060   33.6060 C.ar  215  TYR215      0.0417
    182  CE2       13.4610   -2.9990   31.9060 C.ar  215  TYR215      0.0417
    183  CZ        13.6040   -2.6430   33.2330 C.ar  215  TYR215      0.1957
    184  OH        13.6730   -3.6280   34.1870 O.3   215  TYR215     -0.2866
    185  N         12.9150    2.9930   29.3520 N.am  216  GLY216     -0.1942
    186  CA        13.0590    4.0620   28.3940 C.3   216  GLY216      0.2014
    187  C         14.1280    3.5600   27.4520 C.2   216  GLY216      0.2639
    188  O         15.1050    2.9580   27.9000 O.2   216  GLY216     -0.2714
    189  N         13.9510    3.7910   26.1590 N.am  217  ILE217     -0.1963
    190  CA        14.9210    3.3290   25.1760 C.3   217  ILE217      0.1727
    191  C         15.7000    4.5040   24.6000 C.2   217  ILE217      0.2616
    192  O         15.1250    5.5290   24.2460 O.2   217  ILE217     -0.2715
    193  CB        14.2140    2.5410   24.0410 C.3   217  ILE217      0.0290
    194  CG1       13.1010    1.6580   24.6330 C.3   217  ILE217      0.0022
    195  CG2       15.2290    1.7140   23.2630 C.3   217  ILE217      0.0023
    196  CD1       13.5830    0.5740   25.6070 C.3   217  ILE217      0.0001
    197  N         17.0140    4.3410   24.5210 N.am  218  TYR218     -0.1974
    198  CA        17.8960    5.3800   24.0170 C.3   218  TYR218      0.1639
    199  C         18.7430    4.8520   22.8890 C.2   218  TYR218      0.2290
    200  O         19.0600    3.6650   22.8510 O.2   218  TYR218     -0.2864
    201  CB        18.8310    5.8680   25.1220 C.3   218  TYR218      0.0560
    202  CG        18.1110    6.4230   26.3160 C.ar  218  TYR218     -0.0198
    203  CD1       17.5810    5.5740   27.2890 C.ar  218  TYR218     -0.0009
    204  CD2       17.9260    7.7970   26.4610 C.ar  218  TYR218     -0.0009
    205  CE1       16.8760    6.0820   28.3810 C.ar  218  TYR218      0.0417
    206  CE2       17.2270    8.3150   27.5410 C.ar  218  TYR218      0.0417
    207  CZ        16.7030    7.4530   28.4940 C.ar  218  TYR218      0.1957
    208  OH        15.9960    7.9610   29.5450 O.3   218  TYR218     -0.2866
@<TRIPOS>BOND
     1    19    17   ar
     2    15    16    1
     3    15    12    1
     4    11    12    1
     5    16    17    1
     6    17    18   ar
     7    12    13    1
     8    26    24    1
     9    13    20   am
    10    13    14    2
    11    20    21    1
    12    25    24    1
    13    24    21    1
    14     4     3    2
    15     2     1    1
    16     2     3    1
    17     2     5    1
    18    21    22    1
    19    27    22   am
    20    27    28    1
    21    22    23    2
    22     5     6    1
    23    28    29    1
    24    28    31    1
    25    29    30    2
    26     6     8   ar
    27     6     7   ar
    28    31    32    1
    29    33    32   ar
    30    33    35   ar
    31    32    34   ar
    32    35    37   ar
    33     8    10   ar
    34    34    36   ar
    35    75    74    1
    36    75    77    1
    37    37    36   ar
    38    37    38    1
    39    76    74    1
    40     7     9   ar
    41    74    71    1
    42    10     9   ar
    43    65    67   ar
    44    65    64   ar
    45    67    69   ar
    46    71    70    1
    47    71    72    1
    48    70    61   am
    49    73    72    2
    50   124   123    1
    51    63    64    1
    52    63    60    1
    53    64    66   ar
    54    69    68   ar
    55    60    61    1
    56    60    59    1
    57   133   131   ar
    58   133   134   ar
    59    61    62    2
    60   131   130   ar
    61    66    68   ar
    62   134   136   ar
    63   134   132   ar
    64   123   120    1
    65   122   121    2
    66   130   129    1
    67   130   132   ar
    68   136   138   ar
    69   110   111    1
    70   110   107    1
    71   129   126    1
    72   109   108    2
    73   132   135   ar
    74   120   121    1
    75   120   119    1
    76   108   107    1
    77   121   125   am
    78   115   114    2
    79   138   137   ar
    80   104   103    2
    81   135   137   ar
    82   107   106    1
    83   125   126    1
    84   103   105   am
    85   103   102    1
    86   126   127    1
    87   119   114   am
    88   200   199    2
    89   114   113    1
    90   199   198    1
    91   102   101    1
    92   195   193    1
    93   112   113    1
    94   127   139   am
    95   127   128    2
    96   198   197    1
    97   198   201    1
    98   193   194    1
    99   193   190    1
   100   139   140    1
   101   113   116    1
   102   192   191    2
   103   101    98    1
   104    49    47    1
   105   142   141    2
   106   197   191   am
   107   191   190    1
   108   194   196    1
   109   148   149    1
   110   148   147    1
   111   151   149   ar
   112    98    99    1
   113    98    97    1
   114   116   117    1
   115   116   118    1
   116    99   100    2
   117   149   150   ar
   118   141   140    1
   119   141   143   am
   120   201   202    1
   121   190   189    1
   122    47    46    2
   123    47    48    1
   124   144   143    1
   125   144   147    1
   126   144   145    1
   127    46    45    1
   128    97    93   am
   129   189   187   am
   130   152   145   am
   131   152   153    1
   132   202   204   ar
   133   202   203   ar
   134    94    93    2
   135   204   206   ar
   136   145   146    2
   137    93    92    1
   138    45    44    1
   139   172   170    1
   140   171   170    1
   141   153   154    1
   142   203   205   ar
   143    44    43    1
   144   155   154    2
   145   187   188    2
   146   187   186    1
   147   206   207   ar
   148   170   169    2
   149    92    91    1
   150    92    95    1
   151   154   156   am
   152   205   207   ar
   153   186   185    1
   154   161    96    1
   155   161   160    1
   156    39    40    1
   157   207   208    1
   158    91    88   am
   159    53    52    2
   160   176   175    2
   161    96    95    1
   162    58    56   ar
   163   169   168    1
   164    43    40    1
   165    90    87    1
   166   156   157    1
   167   175   185   am
   168   175   174    1
   169    40    41    1
   170    88    89    2
   171    88    87    1
   172    55    56    1
   173    55    54    1
   174   168   167    1
   175    56    57   ar
   176    52    51    1
   177    87    86    1
   178   160   157    1
   179   157   158    1
   180   173   174    1
   181   177   174    1
   182   177   178    1
   183    51    54    1
   184    51    50    1
   185    85    83   ar
   186    41    42    2
   187    84    83   ar
   188   167   166    1
   189   180   178   ar
   190   180   182   ar
   191    86    80   am
   192    83    82    1
   193   178   179   ar
   194   166   163    1
   195   158   159    2
   196   182   183   ar
   197    80    81    2
   198    80    79    1
   199    82    79    1
   200   179   181   ar
   201   162   163    1
   202   163   164    1
   203    79    78    1
   204   183   181   ar
   205   183   184    1
   206   165   164    2
