@<TRIPOS>MOLECULE
tmp/1kspB00.pdb
 251 245 0 0 0
SMALL
GASTEIGER

@<TRIPOS>ATOM
      1  N         57.7910   32.5980   82.2870 N.3    32  ASP32      -0.1225
      2  CA        58.2600   32.4260   83.6580 C.3    32  ASP32       0.1805
      3  C         57.7100   33.5450   84.5010 C.2    32  ASP32       0.2598
      4  O         57.5390   34.6720   84.0260 O.2    32  ASP32      -0.2718
      5  CB        59.7800   32.5830   83.7790 C.3    32  ASP32       0.1424
      6  CG        60.5520   31.4860   83.1300 C.2    32  ASP32       0.3668
      7  OD1       60.0410   30.3550   82.9910 O.co2  32  ASP32      -0.2456
      8  OD2       61.7080   31.7640   82.7770 O.co2  32  ASP32      -0.2456
      9  N         57.4670   33.2430   85.7650 N.am   33  THR33      -0.1939
     10  CA        57.0400   34.2570   86.6970 C.3    33  THR33       0.2028
     11  C         58.3350   34.4580   87.4790 C.2    33  THR33       0.2642
     12  O         59.1510   33.5300   87.6020 O.2    33  THR33      -0.2714
     13  CB        55.8950   33.7770   87.6290 C.3    33  THR33       0.1808
     14  OG1       56.2300   32.5040   88.1940 O.3    33  THR33      -0.2208
     15  CG2       54.5860   33.6500   86.8590 C.3    33  THR33       0.0379
     16  N         58.6030   35.7010   87.8400 N.am   34  GLU34      -0.1963
     17  CA        59.7770   36.0360   88.6200 C.3    34  GLU34       0.1733
     18  C         59.1870   36.5560   89.9290 C.2    34  GLU34       0.2617
     19  O         58.1940   37.2970   89.9080 O.2    34  GLU34      -0.2715
     20  CB        60.6020   37.0900   87.8850 C.3    34  GLU34       0.0429
     21  CG        61.1520   36.5740   86.5580 C.3    34  GLU34       0.1163
     22  CD        62.0130   35.3240   86.7180 C.2    34  GLU34       0.3649
     23  OE1       62.6280   35.1510   87.7860 O.co2  34  GLU34      -0.2457
     24  OE2       62.0940   34.5110   85.7730 O.co2  34  GLU34      -0.2457
     25  N         59.7590   36.1450   91.0610 N.am   35  THR35      -0.1937
     26  CA        59.2340   36.5190   92.3830 C.3    35  THR35       0.2028
     27  C         60.2870   36.9190   93.4180 C.2    35  THR35       0.2642
     28  O         61.4890   36.8670   93.1470 O.2    35  THR35      -0.2714
     29  CB        58.4930   35.3270   92.9820 C.3    35  THR35       0.1808
     30  OG1       59.4470   34.2990   93.2510 O.3    35  THR35      -0.2208
     31  CG2       57.4710   34.7780   92.0120 C.3    35  THR35       0.0379
     32  N         59.8240   37.2940   94.6150 N.am   36  ASP36      -0.1957
     33  CA        60.7230   37.6780   95.7080 C.3    36  ASP36       0.1840
     34  C         60.8810   36.5840   96.7610 C.2    36  ASP36       0.2623
     35  O         61.4050   36.8330   97.8480 O.2    36  ASP36      -0.2715
     36  CB        60.2540   38.9750   96.3860 C.3    36  ASP36       0.1450
     37  CG        58.8910   38.8470   97.0560 C.2    36  ASP36       0.3671
     38  OD1       58.2530   37.7750   96.9540 O.co2  36  ASP36      -0.2456
     39  OD2       58.4510   39.8400   97.6830 O.co2  36  ASP36      -0.2456
     40  N         60.4490   35.3690   96.4340 N.am   37  SER37      -0.1936
     41  CA        60.5190   34.2600   97.3740 C.3    37  SER37       0.2055
     42  C         60.1800   32.9070   96.7480 C.2    37  SER37       0.2642
     43  O         59.3970   32.8240   95.8180 O.2    37  SER37      -0.2714
     44  CB        59.5440   34.5330   98.5250 C.3    37  SER37       0.2130
     45  OG        59.4800   33.4310   99.4070 O.3    37  SER37      -0.2179
     46  N         60.7560   31.8440   97.3000 N.am   38  LEU38      -0.1977
     47  CA        60.4880   30.4830   96.8430 C.3    38  LEU38       0.1596
     48  C         59.2000   29.9880   97.5050 C.2    38  LEU38       0.2287
     49  O         58.5810   29.0200   97.0480 O.2    38  LEU38      -0.2864
     50  CB        61.6320   29.5480   97.2350 C.3    38  LEU38       0.0297
     51  CG        62.9350   29.6580   96.4560 C.3    38  LEU38       0.0022
     52  CD1       63.9910   28.7950   97.1260 C.3    38  LEU38       0.0001
     53  CD2       62.7060   29.2230   95.0130 C.3    38  LEU38       0.0001
     54  N         59.6310   25.7690   82.8670 N.3    96  GLN96      -0.1231
     55  CA        60.4850   24.9310   83.6970 C.3    96  GLN96       0.1698
     56  C         59.8590   24.9880   85.0950 C.2    96  GLN96       0.2592
     57  O         59.8630   26.0350   85.7480 O.2    96  GLN96      -0.2718
     58  CB        61.9130   25.4860   83.6980 C.3    96  GLN96       0.0381
     59  CG        62.8910   24.8080   84.6490 C.3    96  GLN96       0.0905
     60  CD        63.1790   23.3530   84.3220 C.2    96  GLN96       0.2608
     61  OE1       62.5420   22.7480   83.4610 O.2    96  GLN96      -0.2717
     62  NE2       64.1300   22.7750   85.0370 N.am   96  GLN96      -0.0878
     63  N         59.2270   23.8850   85.4860 N.am   97  ASN97      -0.1974
     64  CA        58.5440   23.7550   86.7730 C.3    97  ASN97       0.1688
     65  C         57.3540   24.7060   86.8390 C.2    97  ASN97       0.2292
     66  O         57.3000   25.6270   87.6510 O.2    97  ASN97      -0.2864
     67  CB        59.5000   23.9830   87.9490 C.3    97  ASN97       0.1181
     68  CG        58.9110   23.5200   89.2810 C.2    97  ASN97       0.2629
     69  OD1       57.9880   22.6950   89.3180 O.2    97  ASN97      -0.2716
     70  ND2       59.4350   24.0530   90.3740 N.am   97  ASN97      -0.0877
     71  N         54.5560   24.1690   87.9440 N.3    99  LYS99      -0.1231
     72  CA        53.8080   24.0120   89.1930 C.3    99  LYS99       0.1693
     73  C         53.9550   25.2990   89.9850 C.2    99  LYS99       0.2592
     74  O         52.9790   25.8870   90.4510 O.2    99  LYS99      -0.2718
     75  CB        54.3780   22.8410   90.0010 C.3    99  LYS99       0.0285
     76  CG        53.7650   22.6350   91.3930 C.3    99  LYS99       0.0035
     77  CD        54.4820   21.5100   92.1450 C.3    99  LYS99       0.0206
     78  CE        55.9450   21.8470   92.3470 C.3    99  LYS99       0.1093
     79  NZ        56.6480   20.9230   93.2810 N.3    99  LYS99      -0.1314
     80  N         55.1870   25.7730   90.0490 N.am  100  TYR100     -0.1962
     81  CA        55.5040   26.9810   90.7630 C.3   100  TYR100      0.1771
     82  C         54.7980   28.2110   90.1810 C.2   100  TYR100      0.2619
     83  O         54.1270   28.9570   90.8990 O.2   100  TYR100     -0.2715
     84  CB        57.0210   27.1540   90.7840 C.3   100  TYR100      0.0574
     85  CG        57.4910   28.4150   91.4730 C.ar  100  TYR100     -0.0198
     86  CD1       57.7560   28.4330   92.8490 C.ar  100  TYR100     -0.0009
     87  CD2       57.6720   29.5950   90.7510 C.ar  100  TYR100     -0.0009
     88  CE1       58.1870   29.5980   93.4810 C.ar  100  TYR100      0.0417
     89  CE2       58.0980   30.7580   91.3690 C.ar  100  TYR100      0.0417
     90  CZ        58.3510   30.7570   92.7290 C.ar  100  TYR100      0.1957
     91  OH        58.7420   31.9260   93.3270 O.3   100  TYR100     -0.2866
     92  N         54.8850   28.3810   88.8670 N.am  101  ASP101     -0.1971
     93  CA        54.2760   29.5330   88.1930 C.3   101  ASP101      0.1709
     94  C         52.7710   29.5650   88.2980 C.2   101  ASP101      0.2293
     95  O         52.1530   30.6300   88.4110 O.2   101  ASP101     -0.2864
     96  CB        54.6720   29.5330   86.7250 C.3   101  ASP101      0.1436
     97  CG        56.1650   29.5010   86.5320 C.2   101  ASP101      0.3671
     98  OD1       56.8100   30.5550   86.6810 O.co2 101  ASP101     -0.2456
     99  OD2       56.6960   28.4100   86.2480 O.co2 101  ASP101     -0.2456
    100  N         60.8910   20.3990   82.5370 N.3   120  MET120     -0.1245
    101  CA        61.4070   19.5880   83.6270 C.3   120  MET120      0.1570
    102  C         60.8580   18.1740   83.5000 C.2   120  MET120      0.2261
    103  O         61.6030   17.1930   83.5830 O.2   120  MET120     -0.2867
    104  CB        61.0170   20.1820   84.9800 C.3   120  MET120      0.0387
    105  CG        61.5520   19.3800   86.1590 C.3   120  MET120      0.0595
    106  SD        61.0750   20.0650   87.7500 S.3   120  MET120     -0.1393
    107  CE        59.3510   19.6140   87.7290 C.3   120  MET120      0.0692
    108  N         70.3570   15.6950   86.6100 N.3   132  ARG132     -0.1231
    109  CA        69.4600   16.6720   87.2000 C.3   132  ARG132      0.1694
    110  C         68.5500   17.2960   86.1490 C.2   132  ARG132      0.2592
    111  O         68.9570   17.4880   85.0030 O.2   132  ARG132     -0.2718
    112  CB        70.2550   17.7250   87.9630 C.3   132  ARG132      0.0321
    113  CG        70.9080   17.1550   89.2110 C.3   132  ARG132      0.0489
    114  CD        71.5490   18.2320   90.0500 C.3   132  ARG132      0.2205
    115  NE        70.5950   19.2900   90.3510 N.pl3 132  ARG132     -0.0865
    116  CZ        70.9310   20.5620   90.5410 C.cat 132  ARG132      0.5346
    117  NH1       72.2000   20.9390   90.4680 N.pl3 132  ARG132      0.1354
    118  NH2       69.9820   21.4700   90.7320 N.pl3 132  ARG132      0.1354
    119  N         67.3170   17.6040   86.5460 N.am  133  HIS133     -0.1962
    120  CA        66.3340   18.1730   85.6310 C.3   133  HIS133      0.1787
    121  C         66.0470   19.6510   85.8070 C.2   133  HIS133      0.2620
    122  O         64.9540   20.1190   85.5070 O.2   133  HIS133     -0.2715
    123  CB        65.0390   17.3720   85.7050 C.3   133  HIS133      0.0785
    124  CG        65.2230   15.9190   85.3950 C.ar  133  HIS133      0.0821
    125  ND1       65.0020   14.9250   86.3230 N.ar  133  HIS133     -0.2267
    126  CD2       65.6510   15.2970   84.2730 C.ar  133  HIS133      0.1154
    127  CE1       65.2850   13.7520   85.7850 C.ar  133  HIS133      0.1986
    128  NE2       65.6830   13.9520   84.5410 N.ar  133  HIS133     -0.2212
    129  N         67.0440   20.3880   86.2760 N.am  134  ASP134     -0.1957
    130  CA        66.9060   21.8220   86.4810 C.3   134  ASP134      0.1840
    131  C         67.3650   22.5100   85.1980 C.2   134  ASP134      0.2621
    132  O         68.1350   21.9330   84.4240 O.2   134  ASP134     -0.2715
    133  CB        67.7730   22.2670   87.6540 C.3   134  ASP134      0.1450
    134  CG        69.2290   21.9450   87.4420 C.2   134  ASP134      0.3671
    135  OD1       69.5500   20.7510   87.3040 O.co2 134  ASP134     -0.2456
    136  OD2       70.0560   22.8800   87.3940 O.co2 134  ASP134     -0.2456
    137  N         66.9180   23.7470   84.9940 N.am  135  MET135     -0.1977
    138  CA        67.2580   24.5260   83.8090 C.3   135  MET135      0.1605
    139  C         68.7440   24.5630   83.4750 C.2   135  MET135      0.2287
    140  O         69.1360   24.3150   82.3390 O.2   135  MET135     -0.2864
    141  CB        66.7410   25.9560   83.9550 C.3   135  MET135      0.0413
    142  CG        67.0480   26.8520   82.7580 C.3   135  MET135      0.0598
    143  SD        66.3900   26.1490   81.2680 S.3   135  MET135     -0.1393
    144  CE        64.6780   26.3870   81.5520 C.3   135  MET135      0.0692
    145  N         71.0770   31.7980   88.8180 N.3   150  PHE150     -0.1227
    146  CA        70.3720   32.6950   89.7190 C.3   150  PHE150      0.1736
    147  C         71.3550   33.3920   90.6630 C.2   150  PHE150      0.2595
    148  O         71.2310   34.5910   90.9250 O.2   150  PHE150     -0.2718
    149  CB        69.3130   31.9270   90.5100 C.3   150  PHE150      0.0547
    150  CG        68.4120   32.8090   91.3080 C.ar  150  PHE150     -0.0202
    151  CD1       67.3220   33.4380   90.7020 C.ar  150  PHE150     -0.0042
    152  CD2       68.6860   33.0790   92.6460 C.ar  150  PHE150     -0.0042
    153  CE1       66.5190   34.3360   91.4170 C.ar  150  PHE150     -0.0003
    154  CE2       67.8930   33.9730   93.3700 C.ar  150  PHE150     -0.0003
    155  CZ        66.8080   34.6050   92.7540 C.ar  150  PHE150     -0.0000
    156  N         72.3500   32.6440   91.1380 N.am  151  GLU151     -0.1979
    157  CA        73.3720   33.1840   92.0320 C.3   151  GLU151      0.1602
    158  C         74.1130   34.3290   91.3550 C.2   151  GLU151      0.2287
    159  O         74.4970   35.2990   92.0040 O.2   151  GLU151     -0.2864
    160  CB        74.4020   32.1080   92.4040 C.3   151  GLU151      0.0415
    161  CG        73.9880   31.1240   93.4840 C.3   151  GLU151      0.1163
    162  CD        72.8720   30.1780   93.0590 C.2   151  GLU151      0.3649
    163  OE1       72.6660   29.9580   91.8390 O.co2 151  GLU151     -0.2457
    164  OE2       72.2030   29.6380   93.9660 O.co2 151  GLU151     -0.2457
    165  N         71.8970   37.4420   99.9050 N.3   160  GLN160     -0.1245
    166  CA        71.4670   37.1970   98.5440 C.3   160  GLN160      0.1566
    167  C         70.2790   38.1080   98.2860 C.2   160  GLN160      0.2260
    168  O         69.3790   38.2220   99.1200 O.2   160  GLN160     -0.2867
    169  CB        71.0420   35.7480   98.3230 C.3   160  GLN160      0.0367
    170  CG        70.8520   35.4770   96.8460 C.3   160  GLN160      0.0905
    171  CD        70.2340   34.1450   96.5300 C.2   160  GLN160      0.2608
    172  OE1       69.1250   33.8500   96.9470 O.2   160  GLN160     -0.2717
    173  NE2       70.9160   33.3590   95.7200 N.am  160  GLN160     -0.0878
    174  N         64.6310   38.9810   93.8910 N.3   163  PHE163     -0.1241
    175  CA        64.4390   39.4940   92.5370 C.3   163  PHE163      0.1605
    176  C         64.0680   40.9640   92.3870 C.2   163  PHE163      0.2264
    177  O         64.5880   41.6550   91.5120 O.2   163  PHE163     -0.2867
    178  CB        63.4450   38.6160   91.7730 C.3   163  PHE163      0.0534
    179  CG        63.8210   38.4010   90.3420 C.ar  163  PHE163     -0.0203
    180  CD1       64.7860   37.4570   90.0020 C.ar  163  PHE163     -0.0042
    181  CD2       63.2350   39.1580   89.3280 C.ar  163  PHE163     -0.0042
    182  CE1       65.1680   37.2720   88.6660 C.ar  163  PHE163     -0.0003
    183  CE2       63.6100   38.9820   87.9950 C.ar  163  PHE163     -0.0003
    184  CZ        64.5780   38.0360   87.6640 C.ar  163  PHE163     -0.0000
    185  N         68.4130   37.3360   83.0330 N.3   174  TYR174     -0.1241
    186  CA        68.0880   36.0640   83.6580 C.3   174  TYR174      0.1605
    187  C         66.7310   35.5130   83.2150 C.2   174  TYR174      0.2264
    188  O         66.6420   34.3950   82.7000 O.2   174  TYR174     -0.2867
    189  CB        68.1090   36.1890   85.2000 C.3   174  TYR174      0.0534
    190  CG        67.7090   34.9150   85.9250 C.ar  174  TYR174     -0.0201
    191  CD1       68.6460   33.9130   86.1760 C.ar  174  TYR174     -0.0009
    192  CD2       66.3820   34.6820   86.2990 C.ar  174  TYR174     -0.0009
    193  CE1       68.2800   32.7050   86.7720 C.ar  174  TYR174      0.0417
    194  CE2       66.0010   33.4730   86.8960 C.ar  174  TYR174      0.0417
    195  CZ        66.9620   32.4900   87.1260 C.ar  174  TYR174      0.1957
    196  OH        66.6160   31.2860   87.6870 O.3   174  TYR174     -0.2866
    197  N         66.0250   32.4970   80.4460 N.3   178  ASP178     -0.1239
    198  CA        65.4040   31.3050   80.9560 C.3   178  ASP178      0.1674
    199  C         64.2060   30.9300   80.1000 C.2   178  ASP178      0.2266
    200  O         64.0440   29.7700   79.7260 O.2   178  ASP178     -0.2867
    201  CB        65.0040   31.5100   82.4080 C.3   178  ASP178      0.1410
    202  CG        64.6380   30.2250   83.0710 C.2   178  ASP178      0.3668
    203  OD1       63.4950   29.7700   82.8680 O.co2 178  ASP178     -0.2456
    204  OD2       65.5020   29.6460   83.7610 O.co2 178  ASP178     -0.2456
    205  N         56.6910   20.2160  100.1540 N.3   331  SER331     -0.1202
    206  CA        57.1590   20.3400   98.7860 C.3   331  SER331      0.2020
    207  C         57.2740   18.9560   98.1580 C.2   331  SER331      0.2619
    208  O         58.1280   18.1470   98.5450 O.2   331  SER331     -0.2717
    209  CB        58.5340   21.0140   98.7490 C.3   331  SER331      0.2103
    210  OG        58.5870   22.1410   99.6050 O.3   331  SER331     -0.2182
    211  N         56.3890   18.6670   97.2160 N.am  332  TYR332     -0.1961
    212  CA        56.4290   17.4040   96.4980 C.3   332  TYR332      0.1771
    213  C         57.3620   17.5780   95.3090 C.2   332  TYR332      0.2619
    214  O         57.4630   18.6680   94.7380 O.2   332  TYR332     -0.2715
    215  CB        55.0470   17.0400   95.9980 C.3   332  TYR332      0.0574
    216  CG        54.1130   16.6500   97.1050 C.ar  332  TYR332     -0.0198
    217  CD1       54.0120   15.3200   97.5100 C.ar  332  TYR332     -0.0009
    218  CD2       53.3150   17.6020   97.7420 C.ar  332  TYR332     -0.0009
    219  CE1       53.1470   14.9530   98.5170 C.ar  332  TYR332      0.0417
    220  CE2       52.4420   17.2360   98.7520 C.ar  332  TYR332      0.0417
    221  CZ        52.3630   15.9110   99.1330 C.ar  332  TYR332      0.1957
    222  OH        51.5120   15.5260  100.1430 O.3   332  TYR332     -0.2866
    223  N         58.0730   16.5190   94.9580 N.am  333  HIS333     -0.1973
    224  CA        58.9910   16.5700   93.8300 C.3   333  HIS333      0.1656
    225  C         58.5210   15.5770   92.7880 C.2   333  HIS333      0.2291
    226  O         58.6010   14.3640   92.9890 O.2   333  HIS333     -0.2864
    227  CB        60.3970   16.2470   94.2890 C.3   333  HIS333      0.0771
    228  CG        60.9040   17.1820   95.3310 C.ar  333  HIS333      0.0820
    229  ND1       61.3350   18.4530   95.0350 N.ar  333  HIS333     -0.2267
    230  CD2       61.0400   17.0360   96.6690 C.ar  333  HIS333      0.1154
    231  CE1       61.7180   19.0550   96.1470 C.ar  333  HIS333      0.1986
    232  NE2       61.5520   18.2170   97.1500 N.ar  333  HIS333     -0.2212
    233  N         59.7920   15.2610   89.6570 N.3   335  ALA335     -0.1231
    234  CA        60.8510   14.7580   88.7860 C.3   335  ALA335      0.1694
    235  C         62.1430   14.4340   89.5260 C.2   335  ALA335      0.2591
    236  O         63.1960   15.0040   89.2160 O.2   335  ALA335     -0.2718
    237  CB        61.1250   15.7680   87.6680 C.3   335  ALA335      0.0304
    238  N         62.0740   13.4880   90.4550 N.am  336  VAL336     -0.1980
    239  CA        63.2450   13.1160   91.2500 C.3   336  VAL336      0.1595
    240  C         63.5070   11.6140   91.3780 C.2   336  VAL336      0.2287
    241  O         64.6460   11.1710   91.2790 O.2   336  VAL336     -0.2864
    242  CB        63.1590   13.7360   92.6770 C.3   336  VAL336      0.0276
    243  CG1       64.1590   13.0860   93.6230 C.3   336  VAL336      0.0022
    244  CG2       63.4350   15.2260   92.6190 C.3   336  VAL336      0.0022
    245  N         59.3970   16.7090  100.6830 N.3   345  THR345     -0.1218
    246  CA        60.3460   17.3490  101.5810 C.3   345  THR345      0.1862
    247  C         59.6850   18.5100  102.3140 C.2   345  THR345      0.2287
    248  O         58.6410   19.0250  101.8900 O.2   345  THR345     -0.2866
    249  CB        61.5860   17.8990  100.8590 C.3   345  THR345      0.1770
    250  OG1       61.1790   18.6870   99.7420 O.3   345  THR345     -0.2211
    251  CG2       62.5010   16.7880  100.4160 C.3   345  THR345      0.0375
@<TRIPOS>BOND
     1   200   199    2
     2   199   198    1
     3   197   198    1
     4   198   201    1
     5   143   144    1
     6   143   142    1
     7     1     2    1
     8   140   139    2
     9   201   202    1
    10   100   101    1
    11   188   187    2
    12   142   141    1
    13     8     6   ar
    14    54    55    1
    15   203   202   ar
    16     7     6   ar
    17   185   186    1
    18   202   204   ar
    19     6     5    1
    20   187   186    1
    21    61    60    2
    22   139   138    1
    23   102   103    2
    24   102   101    1
    25   101   104    1
    26   186   189    1
    27     2     5    1
    28     2     3    1
    29    55    58    1
    30    55    56    1
    31    58    59    1
    32   138   141    1
    33   138   137    1
    34     4     3    2
    35   126   128   ar
    36   126   124   ar
    37    60    59    1
    38    60    62   am
    39   132   131    2
    40     3     9   am
    41   128   127   ar
    42   104   105    1
    43   137   131   am
    44   111   110    2
    45    56    63   am
    46    56    57    2
    47   131   130    1
    48   189   190    1
    49   124   123    1
    50   124   125   ar
    51    63    64    1
    52   122   121    2
    53   120   123    1
    54   120   121    1
    55   120   119    1
    56     9    10    1
    57    24    22   ar
    58   127   125   ar
    59   121   129   am
    60   190   191   ar
    61   190   192   ar
    62   110   119   am
    63   110   109    1
    64   105   106    1
    65   191   193   ar
    66    99    97   ar
    67   129   130    1
    68   192   194   ar
    69   130   133    1
    70    97    98   ar
    71    97    96    1
    72    21    22    1
    73    21    20    1
    74   108   109    1
    75    10    11    1
    76    10    13    1
    77    22    23   ar
    78    96    93    1
    79   193   195   ar
    80    64    65    1
    81    64    67    1
    82    65    66    2
    83    15    13    1
    84   194   195   ar
    85   195   196    1
    86   109   112    1
    87   135   134   ar
    88   136   134   ar
    89   134   133    1
    90    11    12    2
    91    11    16   am
    92    13    14    1
    93   184   183   ar
    94   184   182   ar
    95   237   234    1
    96   107   106    1
    97    16    17    1
    98    20    17    1
    99    71    72    1
   100    67    68    1
   101   112   113    1
   102   183   181   ar
   103    93    94    1
   104    93    92    1
   105    94    95    2
   106    17    18    1
   107   182   180   ar
   108   234   235    1
   109   234   233    1
   110   145   146    1
   111    92    82   am
   112    72    73    1
   113    72    75    1
   114   113   114    1
   115   236   235    2
   116    68    69    2
   117    68    70   am
   118   181   179   ar
   119   235   238   am
   120   146   149    1
   121   146   147    1
   122    19    18    2
   123    18    25   am
   124    73    80   am
   125    73    74    2
   126    75    76    1
   127   180   179   ar
   128    80    81    1
   129   114   115    1
   130    82    81    1
   131    82    83    2
   132   179   178    1
   133   115   116    2
   134   238   239    1
   135   117   116    1
   136   149   150    1
   137   116   118    1
   138   147   148    2
   139   147   156   am
   140   151   150   ar
   141   151   153   ar
   142    87    89   ar
   143    87    85   ar
   144    81    84    1
   145    84    85    1
   146    25    26    1
   147   156   157    1
   148   239   240    1
   149   239   242    1
   150   241   240    2
   151   150   152   ar
   152   158   159    2
   153   158   157    1
   154    89    90   ar
   155    76    77    1
   156   153   155   ar
   157    85    86   ar
   158   177   176    2
   159   178   175    1
   160   163   162   ar
   161    31    29    1
   162   157   160    1
   163    77    78    1
   164    78    79    1
   165    26    29    1
   166    26    27    1
   167   176   175    1
   168   160   161    1
   169   175   174    1
   170   244   242    1
   171   152   154   ar
   172   242   243    1
   173    90    91    1
   174    90    88   ar
   175   155   154   ar
   176   225   226    2
   177   225   224    1
   178    86    88   ar
   179    29    30    1
   180   162   161    1
   181   162   164   ar
   182    28    27    2
   183    27    32   am
   184   224   227    1
   185   224   223    1
   186   227   228    1
   187    32    33    1
   188   214   213    2
   189   223   213   am
   190    53    51    1
   191   229   228   ar
   192   229   231   ar
   193   213   212    1
   194   228   230   ar
   195    33    36    1
   196    33    34    1
   197   173   171   am
   198    43    42    2
   199   215   212    1
   200   215   216    1
   201   231   232   ar
   202    36    37    1
   203    40    34   am
   204    40    41    1
   205    51    52    1
   206    51    50    1
   207   212   211    1
   208   171   170    1
   209   171   172    2
   210   230   232   ar
   211    42    46   am
   212    42    41    1
   213    34    35    2
   214    47    50    1
   215    47    46    1
   216    47    48    1
   217   170   169    1
   218    38    37   ar
   219    49    48    2
   220    37    39   ar
   221   216   217   ar
   222   216   218   ar
   223   211   207   am
   224    41    44    1
   225   217   219   ar
   226   218   220   ar
   227   207   208    2
   228   207   206    1
   229   167   166    1
   230   167   168    2
   231   169   166    1
   232   219   221   ar
   233    44    45    1
   234   166   165    1
   235   209   206    1
   236   209   210    1
   237   220   221   ar
   238   206   205    1
   239   221   222    1
   240   250   249    1
   241   251   249    1
   242   245   246    1
   243   249   246    1
   244   246   247    1
   245   248   247    2
