@<TRIPOS>MOLECULE
tmp/1ksvA00.pdb
 144 139 0 0 0
SMALL
GASTEIGER

@<TRIPOS>ATOM
      1  N         42.9360   11.7250   -2.9460 N.3   101  ARG101     -0.1231
      2  CA        42.9840   11.2930   -1.5600 C.3   101  ARG101      0.1694
      3  C         44.3910   11.0860   -1.0440 C.2   101  ARG101      0.2592
      4  O         45.3160   10.8210   -1.8130 O.2   101  ARG101     -0.2718
      5  CB        42.2080   10.0000   -1.3830 C.3   101  ARG101      0.0321
      6  CG        40.7950   10.0460   -1.8990 C.3   101  ARG101      0.0489
      7  CD        40.6240    9.0190   -2.9880 C.3   101  ARG101      0.2205
      8  NE        39.5900    8.0470   -2.6630 N.pl3 101  ARG101     -0.0865
      9  CZ        38.2960    8.3280   -2.5910 C.cat 101  ARG101      0.5346
     10  NH1       37.8700    9.5670   -2.8250 N.pl3 101  ARG101      0.1354
     11  NH2       37.4270    7.3700   -2.2870 N.pl3 101  ARG101      0.1354
     12  N         44.5410   11.2320    0.2700 N.am  102  LEU102     -0.1966
     13  CA        45.8160   11.0070    0.9440 C.3   102  LEU102      0.1728
     14  C         45.6050    9.8650    1.9420 C.2   102  LEU102      0.2616
     15  O         44.6000    9.8350    2.6530 O.2   102  LEU102     -0.2715
     16  CB        46.3140   12.2600    1.6660 C.3   102  LEU102      0.0311
     17  CG        47.0090   13.3160    0.8140 C.3   102  LEU102      0.0022
     18  CD1       47.7270   14.2840    1.7420 C.3   102  LEU102      0.0001
     19  CD2       48.0000   12.6600   -0.1270 C.3   102  LEU102      0.0001
     20  N         46.5430    8.9250    1.9680 N.am  103  ASP103     -0.1971
     21  CA        46.4760    7.7760    2.8540 C.3   103  ASP103      0.1709
     22  C         46.4160    8.2470    4.2980 C.2   103  ASP103      0.2293
     23  O         46.8710    9.3500    4.6250 O.2   103  ASP103     -0.2864
     24  CB        47.6840    6.8560    2.6230 C.3   103  ASP103      0.1436
     25  CG        47.4770    5.4620    3.1940 C.2   103  ASP103      0.3671
     26  OD1       46.3400    4.9380    3.0910 O.co2 103  ASP103     -0.2456
     27  OD2       48.4510    4.8860    3.7330 O.co2 103  ASP103     -0.2456
     28  N         49.4150    9.9890    5.8570 N.3   106  THR106     -0.1218
     29  CA        50.1010   10.9150    4.9740 C.3   106  THR106      0.1862
     30  C         49.5290   12.2820    5.2950 C.2   106  THR106      0.2287
     31  O         48.3310   12.4120    5.5620 O.2   106  THR106     -0.2866
     32  CB        49.8460   10.5750    3.5000 C.3   106  THR106      0.1770
     33  OG1       50.6380    9.4380    3.1410 O.3   106  THR106     -0.2211
     34  CG2       50.2070   11.7480    2.6100 C.3   106  THR106      0.0375
     35  N         52.4940   16.4940   -8.4970 N.3   130  LYS130     -0.1245
     36  CA        52.3630   16.4460   -7.0520 C.3   130  LYS130      0.1561
     37  C         53.8000   16.4170   -6.5640 C.2   130  LYS130      0.2260
     38  O         54.6270   15.6870   -7.1170 O.2   130  LYS130     -0.2867
     39  CB        51.6270   15.1810   -6.5910 C.3   130  LYS130      0.0271
     40  CG        50.0970   15.2600   -6.6410 C.3   130  LYS130      0.0035
     41  CD        49.5460   15.0610   -8.0490 C.3   130  LYS130      0.0206
     42  CE        49.7780   13.6330   -8.5490 C.3   130  LYS130      0.1093
     43  NZ        49.3940   12.6100   -7.5300 N.3   130  LYS130     -0.1314
     44  N         56.0910   15.9180   -3.1240 N.3   132  TYR132     -0.1241
     45  CA        56.1070   15.5120   -1.7260 C.3   132  TYR132      0.1605
     46  C         57.4440   15.6880   -1.0210 C.2   132  TYR132      0.2264
     47  O         58.5050   15.7710   -1.6500 O.2   132  TYR132     -0.2867
     48  CB        55.7250   14.0410   -1.5890 C.3   132  TYR132      0.0534
     49  CG        54.4230   13.6590   -2.2200 C.ar  132  TYR132     -0.0201
     50  CD1       54.3240   13.3990   -3.5860 C.ar  132  TYR132     -0.0009
     51  CD2       53.2840   13.5210   -1.4450 C.ar  132  TYR132     -0.0009
     52  CE1       53.1130   13.0020   -4.1490 C.ar  132  TYR132      0.0417
     53  CE2       52.0810   13.1350   -2.0010 C.ar  132  TYR132      0.0417
     54  CZ        52.0050   12.8740   -3.3410 C.ar  132  TYR132      0.1957
     55  OH        50.8060   12.4540   -3.8350 O.3   132  TYR132     -0.2866
     56  N         56.1980   13.9940   -8.9290 N.3   178  ILE178     -0.1245
     57  CA        55.7060   12.9820   -9.8640 C.3   178  ILE178      0.1561
     58  C         54.4640   13.4990  -10.5620 C.2   178  ILE178      0.2260
     59  O         53.6090   14.1050   -9.9220 O.2   178  ILE178     -0.2867
     60  CB        55.3550   11.6510   -9.1420 C.3   178  ILE178      0.0252
     61  CG1       54.2910   11.9000   -8.0720 C.3   178  ILE178      0.0019
     62  CG2       56.6020   11.0630   -8.4700 C.3   178  ILE178      0.0019
     63  CD1       53.9000   10.6510   -7.3320 C.3   178  ILE178      0.0001
     64  N         50.0040    9.2970  -10.6180 N.3   181  GLY181     -0.1210
     65  CA        49.1030    9.2250   -9.4840 C.3   181  GLY181      0.1956
     66  C         48.5980    7.8290   -9.1420 C.2   181  GLY181      0.2612
     67  O         47.4250    7.6620   -8.7790 O.2   181  GLY181     -0.2717
     68  N         49.4590    6.8200   -9.2520 N.am  182  ARG182     -0.1965
     69  CA        49.0350    5.4660   -8.9160 C.3   182  ARG182      0.1729
     70  C         48.7710    5.3630   -7.4210 C.2   182  ARG182      0.2616
     71  O         49.0180    6.3060   -6.6670 O.2   182  ARG182     -0.2715
     72  CB        50.1060    4.4360   -9.2610 C.3   182  ARG182      0.0348
     73  CG        50.3640    4.1900  -10.7280 C.3   182  ARG182      0.0492
     74  CD        51.0160    2.8180  -10.8630 C.3   182  ARG182      0.2205
     75  NE        51.7510    2.6340  -12.1090 N.pl3 182  ARG182     -0.0865
     76  CZ        52.3250    1.4880  -12.4560 C.cat 182  ARG182      0.5346
     77  NH1       52.9810    1.3980  -13.6060 N.pl3 182  ARG182      0.1354
     78  NH2       52.2330    0.4280  -11.6560 N.pl3 182  ARG182      0.1354
     79  N         48.3060    4.1880   -7.0050 N.am  183  TYR183     -0.1960
     80  CA        47.9870    3.8990   -5.6140 C.3   183  TYR183      0.1771
     81  C         49.2420    3.7290   -4.7650 C.2   183  TYR183      0.2620
     82  O         50.0400    2.8190   -4.9960 O.2   183  TYR183     -0.2715
     83  CB        47.1560    2.6210   -5.5350 C.3   183  TYR183      0.0574
     84  CG        46.5610    2.3690   -4.1760 C.ar  183  TYR183     -0.0198
     85  CD1       45.5360    3.1750   -3.6830 C.ar  183  TYR183     -0.0009
     86  CD2       47.0350    1.3400   -3.3710 C.ar  183  TYR183     -0.0009
     87  CE1       44.9970    2.9610   -2.4220 C.ar  183  TYR183      0.0417
     88  CE2       46.5090    1.1180   -2.1080 C.ar  183  TYR183      0.0417
     89  CZ        45.4910    1.9300   -1.6360 C.ar  183  TYR183      0.1957
     90  OH        44.9750    1.7110   -0.3730 O.3   183  TYR183     -0.2866
     91  N         49.4110    4.5960   -3.7760 N.am  184  HIS184     -0.1959
     92  CA        50.5750    4.5020   -2.9140 C.3   184  HIS184      0.1787
     93  C         51.8290    4.4970   -3.7790 C.2   184  HIS184      0.2620
     94  O         52.7680    3.7340   -3.5340 O.2   184  HIS184     -0.2715
     95  CB        50.5120    3.2130   -2.0870 C.3   184  HIS184      0.0785
     96  CG        49.3890    3.1760   -1.0900 C.ar  184  HIS184      0.0821
     97  ND1       49.3150    2.2290   -0.0910 N.ar  184  HIS184     -0.2267
     98  CD2       48.3030    3.9720   -0.9320 C.ar  184  HIS184      0.1154
     99  CE1       48.2350    2.4460    0.6400 C.ar  184  HIS184      0.1986
    100  NE2       47.6030    3.4970    0.1510 N.ar  184  HIS184     -0.2212
    101  N         51.8560    5.3710   -4.7820 N.am  185  GLN185     -0.1963
    102  CA        52.9880    5.4190   -5.6950 C.3   185  GLN185      0.1733
    103  C         54.3610    5.7000   -5.1090 C.2   185  GLN185      0.2616
    104  O         55.3160    4.9860   -5.4240 O.2   185  GLN185     -0.2715
    105  CB        52.7370    6.4050   -6.8300 C.3   185  GLN185      0.0408
    106  CG        53.4490    5.9450   -8.0730 C.3   185  GLN185      0.0908
    107  CD        53.5830    7.0000   -9.1150 C.2   185  GLN185      0.2608
    108  OE1       52.5920    7.5480   -9.6060 O.2   185  GLN185     -0.2717
    109  NE2       54.8260    7.2970   -9.4760 N.am  185  GLN185     -0.0878
    110  N         54.4800    6.7350   -4.2820 N.am  186  VAL186     -0.1963
    111  CA        55.7730    7.0680   -3.6900 C.3   186  VAL186      0.1727
    112  C         56.2700    5.9150   -2.8330 C.2   186  VAL186      0.2616
    113  O         57.3860    5.4510   -3.0270 O.2   186  VAL186     -0.2715
    114  CB        55.7480    8.3580   -2.7920 C.3   186  VAL186      0.0290
    115  CG1       57.1110    8.5580   -2.1570 C.3   186  VAL186      0.0023
    116  CG2       55.4640    9.5950   -3.5980 C.3   186  VAL186      0.0023
    117  N         55.4570    5.4410   -1.8940 N.am  187  LYS187     -0.1977
    118  CA        55.9070    4.3500   -1.0310 C.3   187  LYS187      0.1596
    119  C         56.4550    3.1960   -1.8550 C.2   187  LYS187      0.2287
    120  O         57.5570    2.6970   -1.6160 O.2   187  LYS187     -0.2864
    121  CB        54.7760    3.8430   -0.1240 C.3   187  LYS187      0.0298
    122  CG        54.3860    4.8070    0.9870 C.3   187  LYS187      0.0038
    123  CD        53.6670    4.0630    2.1010 C.3   187  LYS187      0.0206
    124  CE        53.3720    4.9740    3.2960 C.3   187  LYS187      0.1093
    125  NZ        52.3170    5.9950    2.9880 N.3   187  LYS187     -0.1314
    126  N         55.6380   10.9430    4.9690 N.3   199  LEU199     -0.1245
    127  CA        55.3620   11.4250    3.6250 C.3   199  LEU199      0.1561
    128  C         54.4480   12.6580    3.6550 C.2   199  LEU199      0.2260
    129  O         53.2950   12.5630    4.0630 O.2   199  LEU199     -0.2867
    130  CB        54.7220   10.3040    2.8350 C.3   199  LEU199      0.0270
    131  CG        54.4440   10.6260    1.3760 C.3   199  LEU199      0.0019
    132  CD1       55.7570   10.9000    0.6680 C.3   199  LEU199      0.0001
    133  CD2       53.6890    9.4560    0.7330 C.3   199  LEU199      0.0001
    134  N         52.7130   15.8970    1.4700 N.3   201  ARG201     -0.1245
    135  CA        52.4530   16.5110    0.1730 C.3   201  ARG201      0.1563
    136  C         52.4370   18.0260    0.2740 C.2   201  ARG201      0.2260
    137  O         51.6450   18.6110    1.0120 O.2   201  ARG201     -0.2867
    138  CB        51.1380   16.0260   -0.4240 C.3   201  ARG201      0.0307
    139  CG        50.9300   16.5230   -1.8510 C.3   201  ARG201      0.0489
    140  CD        49.8880   15.7050   -2.6070 C.3   201  ARG201      0.2205
    141  NE        48.5400   15.9300   -2.1010 N.pl3 201  ARG201     -0.0865
    142  CZ        47.4740   15.2750   -2.5380 C.cat 201  ARG201      0.5346
    143  NH1       46.2740   15.5320   -2.0350 N.pl3 201  ARG201      0.1354
    144  NH2       47.6130   14.3520   -3.4780 N.pl3 201  ARG201      0.1354
@<TRIPOS>BOND
     1    77    76    1
     2    76    75    2
     3    76    78    1
     4    75    74    1
     5    74    73    1
     6    73    72    1
     7    64    65    1
     8    58    59    2
     9    58    57    1
    10    57    60    1
    11    57    56    1
    12   108   107    2
    13    65    66    1
    14   109   107   am
    15    72    69    1
    16    68    66   am
    17    68    69    1
    18    60    62    1
    19    60    61    1
    20    66    67    2
    21   107   106    1
    22    69    70    1
    23    42    41    1
    24    42    43    1
    25    35    36    1
    26   106   105    1
    27    61    63    1
    28    41    40    1
    29    70    79   am
    30    70    71    2
    31    38    37    2
    32    36    39    1
    33    36    37    1
    34    79    80    1
    35   105   102    1
    36    40    39    1
    37   102   103    1
    38   102   101    1
    39    80    83    1
    40    80    81    1
    41    83    84    1
    42   104   103    2
    43   103   110   am
    44    82    81    2
    45   101    93   am
    46    81    91   am
    47   110   111    1
    48    84    85   ar
    49    84    86   ar
    50    52    50   ar
    51    52    54   ar
    52    55    54    1
    53    93    94    2
    54    93    92    1
    55    91    92    1
    56   111   112    1
    57   111   114    1
    58    85    87   ar
    59   116   114    1
    60    50    49   ar
    61   144   142    1
    62    86    88   ar
    63    54    53   ar
    64    44    45    1
    65   113   112    2
    66     7     8    1
    67     7     6    1
    68     1     2    1
    69    92    95    1
    70   112   117   am
    71    10     9    1
    72   114   115    1
    73     8     9    2
    74   140   141    1
    75   140   139    1
    76     9    11    1
    77   142   141    2
    78   142   143    1
    79    87    89   ar
    80    49    48    1
    81    49    51   ar
    82    88    89   ar
    83    95    96    1
    84    53    51   ar
    85     6     5    1
    86   117   118    1
    87   119   120    2
    88   119   118    1
    89   139   138    1
    90     4     3    2
    91    45    48    1
    92    45    46    1
    93    47    46    2
    94    89    90    1
    95     2     5    1
    96     2     3    1
    97    96    98   ar
    98    96    97   ar
    99     3    12   am
   100   118   121    1
   101    98   100   ar
   102   138   135    1
   103    19    17    1
   104   121   122    1
   105    97    99   ar
   106   100    99   ar
   107   135   136    1
   108   135   134    1
   109    12    13    1
   110   136   137    2
   111   132   131    1
   112   133   131    1
   113    17    16    1
   114    17    18    1
   115    13    16    1
   116    13    14    1
   117   122   123    1
   118   131   130    1
   119    14    20   am
   120    14    15    2
   121    20    21    1
   122   123   124    1
   123    34    32    1
   124    24    21    1
   125    24    25    1
   126   130   127    1
   127    21    22    1
   128   125   124    1
   129    26    25   ar
   130    33    32    1
   131    25    27   ar
   132    32    29    1
   133   127   128    1
   134   127   126    1
   135   128   129    2
   136    22    23    2
   137    29    30    1
   138    29    28    1
   139    30    31    2
