@<TRIPOS>MOLECULE
tmp/1ktaA01.pdb
 162 152 0 0 0
SMALL
GASTEIGER

@<TRIPOS>ATOM
      1  N         -3.8910   33.2680   18.2690 N.3    77  GLY77      -0.1225
      2  CA        -5.2720   33.2780   18.6670 C.3    77  GLY77       0.1811
      3  C         -6.1410   33.0840   17.4280 C.2    77  GLY77       0.2280
      4  O         -6.1070   33.8920   16.4850 O.2    77  GLY77      -0.2866
      5  N         -2.5120   32.2250   10.6660 N.3    96  ASN96      -0.1240
      6  CA        -2.0270   32.2190   12.0410 C.3    96  ASN96       0.1653
      7  C         -0.7380   31.4070   12.1280 C.2    96  ASN96       0.2266
      8  O          0.1460   31.7350   12.8990 O.2    96  ASN96      -0.2867
      9  CB        -3.0800   31.6180   12.9690 C.3    96  ASN96       0.1155
     10  CG        -4.3110   32.4970   13.0840 C.2    96  ASN96       0.2627
     11  OD1       -4.3220   33.5080   13.8370 O.2    96  ASN96      -0.2716
     12  ND2       -5.3560   32.1470   12.3210 N.am   96  ASN96      -0.0877
     13  N          2.0410   33.5950   10.7770 N.3    99  ARG99      -0.1245
     14  CA         2.3630   34.6570   11.7440 C.3    99  ARG99       0.1563
     15  C          3.1590   34.1550   12.9520 C.2    99  ARG99       0.2260
     16  O          4.0920   34.8300   13.4360 O.2    99  ARG99      -0.2867
     17  CB         1.0690   35.3420   12.1920 C.3    99  ARG99       0.0307
     18  CG         1.2780   36.6560   12.8820 C.3    99  ARG99       0.0489
     19  CD        -0.0500   37.3990   13.0840 C.3    99  ARG99       0.2205
     20  NE        -1.0270   36.7150   13.9280 N.pl3  99  ARG99      -0.0865
     21  CZ        -2.2880   37.1490   14.0660 C.cat  99  ARG99       0.5346
     22  NH1       -2.7230   38.2330   13.4070 N.pl3  99  ARG99       0.1354
     23  NH2       -3.1140   36.5490   14.9060 N.pl3  99  ARG99       0.1354
     24  N        -11.9830   28.9810   21.1020 N.3   141  TYR141     -0.1241
     25  CA       -10.7770   29.8170   20.9460 C.3   141  TYR141      0.1605
     26  C         -9.5640   28.9180   21.1300 C.2   141  TYR141      0.2264
     27  O         -9.5050   28.1510   22.0730 O.2   141  TYR141     -0.2867
     28  CB       -10.7590   30.9430   22.0050 C.3   141  TYR141      0.0534
     29  CG        -9.6140   31.9550   21.8510 C.ar  141  TYR141     -0.0201
     30  CD1       -9.6010   32.8640   20.7920 C.ar  141  TYR141     -0.0009
     31  CD2       -8.5420   31.9970   22.7620 C.ar  141  TYR141     -0.0009
     32  CE1       -8.5580   33.7990   20.6220 C.ar  141  TYR141      0.0417
     33  CE2       -7.4960   32.9330   22.6110 C.ar  141  TYR141      0.0417
     34  CZ        -7.5070   33.8390   21.5320 C.ar  141  TYR141      0.1957
     35  OH        -6.4830   34.7670   21.3820 O.3   141  TYR141     -0.2866
     36  N          2.6660   52.0710   22.1600 N.3   192  ARG192     -0.1245
     37  CA         2.6630   50.6270   22.0960 C.3   192  ARG192      0.1563
     38  C          3.7100   49.9580   21.2460 C.2   192  ARG192      0.2260
     39  O          4.1470   48.8290   21.5610 O.2   192  ARG192     -0.2867
     40  CB         1.3220   50.1660   21.5940 C.3   192  ARG192      0.0307
     41  CG         1.0700   48.6990   21.8010 C.3   192  ARG192      0.0489
     42  CD        -0.2490   48.2770   21.1860 C.3   192  ARG192      0.2205
     43  NE        -0.4840   46.8900   21.5600 N.pl3 192  ARG192     -0.0865
     44  CZ         0.1150   45.8610   20.9710 C.cat 192  ARG192      0.5346
     45  NH1        0.9800   46.0920   19.9480 N.pl3 192  ARG192      0.1354
     46  NH2       -0.1170   44.6260   21.4240 N.pl3 192  ARG192      0.1354
     47  N          3.3110   38.8100   17.1980 N.3   202  LYS202     -0.1245
     48  CA         2.4240   38.5980   18.3170 C.3   202  LYS202      0.1561
     49  C          3.2310   38.0890   19.4840 C.2   202  LYS202      0.2260
     50  O          3.1900   36.9070   19.8100 O.2   202  LYS202     -0.2867
     51  CB         1.3310   37.6030   17.9190 C.3   202  LYS202      0.0271
     52  CG         0.0670   37.7340   18.7270 C.3   202  LYS202      0.0035
     53  CD        -1.0560   36.8900   18.1260 C.3   202  LYS202      0.0206
     54  CE        -2.3280   36.9900   18.9440 C.3   202  LYS202      0.1093
     55  NZ        -2.7640   38.3820   19.2360 N.3   202  LYS202     -0.1314
     56  N          2.0880   43.1760   24.9250 N.3   207  TYR207     -0.1241
     57  CA         0.8370   43.3150   25.6970 C.3   207  TYR207      0.1605
     58  C          0.9330   43.7490   27.1530 C.2   207  TYR207      0.2264
     59  O          0.0970   44.5600   27.6480 O.2   207  TYR207     -0.2867
     60  CB         0.0560   42.0070   25.6150 C.3   207  TYR207      0.0534
     61  CG        -0.3020   41.7000   24.1640 C.ar  207  TYR207     -0.0201
     62  CD1        0.5880   41.0260   23.3330 C.ar  207  TYR207     -0.0009
     63  CD2       -1.4940   42.1320   23.6410 C.ar  207  TYR207     -0.0009
     64  CE1        0.2920   40.8010   21.9750 C.ar  207  TYR207      0.0417
     65  CE2       -1.8230   41.9030   22.2860 C.ar  207  TYR207      0.0417
     66  CZ        -0.9180   41.2460   21.4690 C.ar  207  TYR207      0.1957
     67  OH        -1.2320   41.0500   20.1210 O.3   207  TYR207     -0.2866
     68  N         -3.7840   50.8870   15.7690 N.3   237  GLU237     -0.1245
     69  CA        -4.6810   49.7590   15.9930 C.3   237  GLU237      0.1567
     70  C         -5.3800   50.0460   17.3210 C.2   237  GLU237      0.2260
     71  O         -4.9240   50.8970   18.0860 O.2   237  GLU237     -0.2867
     72  CB        -3.9250   48.4000   15.9030 C.3   237  GLU237      0.0388
     73  CG        -2.7770   48.1730   16.8350 C.3   237  GLU237      0.1160
     74  CD        -1.8960   46.9560   16.4200 C.2   237  GLU237      0.3649
     75  OE1       -2.3460   46.0350   15.6770 O.co2 237  GLU237     -0.2457
     76  OE2       -0.7320   46.9020   16.8520 O.co2 237  GLU237     -0.2457
     77  N         -6.7010   48.5630   20.6950 N.3   239  GLY239     -0.1210
     78  CA        -6.7900   47.5320   21.6990 C.3   239  GLY239      0.1956
     79  C         -6.0770   46.2930   21.2400 C.2   239  GLY239      0.2613
     80  O         -4.8680   46.2450   21.2560 O.2   239  GLY239     -0.2717
     81  N         -6.8550   45.2980   20.8510 N.am  240  THR240     -0.1938
     82  CA        -6.4170   44.0370   20.3180 C.3   240  THR240      0.2028
     83  C         -7.1830   43.8600   18.9900 C.2   240  THR240      0.2642
     84  O         -7.7650   42.7880   18.7010 O.2   240  THR240     -0.2714
     85  CB        -6.8490   42.9130   21.2080 C.3   240  THR240      0.1808
     86  OG1       -8.2550   43.0650   21.4300 O.3   240  THR240     -0.2208
     87  CG2       -6.0680   42.9530   22.5860 C.3   240  THR240      0.0379
     88  N         -7.2640   44.9360   18.2240 N.am  241  MET241     -0.1962
     89  CA        -7.9780   44.8890   16.9290 C.3   241  MET241      0.1736
     90  C         -7.3620   45.9060   16.0030 C.2   241  MET241      0.2616
     91  O         -6.8020   46.9030   16.4480 O.2   241  MET241     -0.2715
     92  CB        -9.4550   45.3080   17.0550 C.3   241  MET241      0.0427
     93  CG       -10.3330   44.4590   17.9910 C.3   241  MET241      0.0599
     94  SD       -12.0240   45.1190   18.1490 S.3   241  MET241     -0.1393
     95  CE       -11.7460   46.5440   18.8180 C.3   241  MET241      0.0692
     96  N         -7.4440   45.6200   14.7110 N.am  242  ASN242     -0.1972
     97  CA        -6.9980   46.6020   13.7190 C.3   242  ASN242      0.1688
     98  C         -8.1690   47.5600   13.5750 C.2   242  ASN242      0.2292
     99  O         -9.3210   47.2230   13.8910 O.2   242  ASN242     -0.2864
    100  CB        -6.6580   45.8660   12.4110 C.3   242  ASN242      0.1181
    101  CG        -5.3970   45.0450   12.5780 C.2   242  ASN242      0.2629
    102  OD1       -4.3080   45.5980   12.7980 O.2   242  ASN242     -0.2716
    103  ND2       -5.5320   43.7650   12.5550 N.am  242  ASN242     -0.0877
    104  N         -0.0300   44.8920   14.0370 N.3   266  LEU266     -0.1245
    105  CA        -0.1250   43.4750   13.8240 C.3   266  LEU266      0.1561
    106  C         -0.9300   43.1440   12.5610 C.2   266  LEU266      0.2260
    107  O         -1.9880   43.6930   12.3460 O.2   266  LEU266     -0.2867
    108  CB        -0.8170   42.8340   15.0350 C.3   266  LEU266      0.0270
    109  CG        -0.7720   41.3080   14.9860 C.3   266  LEU266      0.0019
    110  CD1        0.6700   40.8860   15.3320 C.3   266  LEU266      0.0001
    111  CD2       -1.7890   40.6880   15.9020 C.3   266  LEU266      0.0001
    112  N         -3.4900   41.5450   11.1880 N.3   268  GLY268     -0.1210
    113  CA        -4.6310   40.7750   11.6040 C.3   268  GLY268      0.1956
    114  C         -5.2150   39.9160   10.5020 C.2   268  GLY268      0.2612
    115  O         -5.3030   40.3290    9.3350 O.2   268  GLY268     -0.2717
    116  N         -5.5930   38.7120   10.8800 N.am  269  VAL269     -0.1965
    117  CA        -6.2080   37.7730    9.9220 C.3   269  VAL269      0.1727
    118  C         -7.5960   38.2970    9.4950 C.2   269  VAL269      0.2616
    119  O         -7.9740   38.1840    8.3150 O.2   269  VAL269     -0.2715
    120  CB        -6.3450   36.3990   10.5520 C.3   269  VAL269      0.0290
    121  CG1       -7.0150   35.3840    9.5330 C.3   269  VAL269      0.0023
    122  CG2       -5.0060   35.9020   10.9520 C.3   269  VAL269      0.0023
    123  N         -8.3660   38.8470   10.4520 N.am  270  VAL270     -0.1963
    124  CA        -9.6700   39.3800   10.1000 C.3   270  VAL270      0.1727
    125  C         -9.5010   40.5970    9.1930 C.2   270  VAL270      0.2616
    126  O        -10.2220   40.7190    8.1930 O.2   270  VAL270     -0.2715
    127  CB       -10.5250   39.7120   11.3400 C.3   270  VAL270      0.0290
    128  CG1      -11.9200   40.1610   10.8950 C.3   270  VAL270      0.0023
    129  CG2      -10.6370   38.4280   12.1840 C.3   270  VAL270      0.0023
    130  N         -8.5650   41.4770    9.5580 N.am  271  ARG271     -0.1977
    131  CA        -8.2250   42.6760    8.7790 C.3   271  ARG271      0.1597
    132  C         -7.9660   42.2820    7.2940 C.2   271  ARG271      0.2287
    133  O         -8.5130   42.8850    6.3420 O.2   271  ARG271     -0.2864
    134  CB        -6.9230   43.3050    9.3390 C.3   271  ARG271      0.0334
    135  CG        -6.2510   44.3530    8.4460 C.3   271  ARG271      0.0492
    136  CD        -4.8900   44.7320    9.0140 C.3   271  ARG271      0.2205
    137  NE        -4.2480   45.8210    8.2530 N.pl3 271  ARG271     -0.0865
    138  CZ        -3.6330   45.6490    7.0770 C.cat 271  ARG271      0.5346
    139  NH1       -3.5540   44.4460    6.5440 N.pl3 271  ARG271      0.1354
    140  NH2       -3.1480   46.6970    6.4380 N.pl3 271  ARG271      0.1354
    141  N        -11.3350   45.3100   14.0090 N.3   311  SER311     -0.1202
    142  CA       -11.4840   43.9560   13.5010 C.3   311  SER311      0.2020
    143  C        -10.5400   43.0750   14.2680 C.2   311  SER311      0.2619
    144  O         -9.4090   43.4260   14.4720 O.2   311  SER311     -0.2717
    145  CB       -11.1320   43.8260   11.9910 C.3   311  SER311      0.2103
    146  OG        -9.7260   43.9870   11.7390 O.3   311  SER311     -0.2182
    147  N        -10.9850   41.8850   14.6410 N.am  312  GLY312     -0.1942
    148  CA       -10.0870   41.0190   15.3650 C.3   312  GLY312      0.2014
    149  C        -10.7950   39.7070   15.6200 C.2   312  GLY312      0.2640
    150  O        -12.0140   39.6420   15.4750 O.2   312  GLY312     -0.2714
    151  N        -10.0510   38.6830   16.0170 N.am  313  THR313     -0.1936
    152  CA       -10.6570   37.3680   16.2650 C.3   313  THR313      0.2028
    153  C        -11.7390   37.3900   17.3660 C.2   313  THR313      0.2642
    154  O        -12.8090   36.7640   17.2240 O.2   313  THR313     -0.2714
    155  CB        -9.5230   36.3410   16.5720 C.3   313  THR313      0.1808
    156  OG1       -8.7170   36.1960   15.3990 O.3   313  THR313     -0.2208
    157  CG2      -10.0810   34.9630   16.9730 C.3   313  THR313      0.0379
    158  N        -11.4960   38.1350   18.4380 N.am  314  ALA314     -0.1977
    159  CA       -12.4460   38.2290   19.5680 C.3   314  ALA314      0.1597
    160  C        -13.7180   38.8840   19.1430 C.2   314  ALA314      0.2287
    161  O        -14.8080   38.4210   19.4690 O.2   314  ALA314     -0.2864
    162  CB       -11.8220   39.0590   20.7360 C.3   314  ALA314      0.0319
@<TRIPOS>BOND
     1   133   132    2
     2   140   138    1
     3   139   138    1
     4   138   137    2
     5   132   131    1
     6   126   125    2
     7   137   136    1
     8   119   118    2
     9   135   136    1
    10   135   134    1
    11   131   134    1
    12   131   130    1
    13   125   130   am
    14   125   124    1
    15   115   114    2
    16   118   117    1
    17   118   123   am
    18   121   120    1
    19   117   120    1
    20   117   116    1
    21   124   123    1
    22   124   127    1
    23   114   116   am
    24   114   113    1
    25   120   122    1
    26     5     6    1
    27    13    14    1
    28   128   127    1
    29   112   113    1
    30   127   129    1
    31   146   145    1
    32    14    17    1
    33    14    15    1
    34   145   142    1
    35     6     7    1
    36     6     9    1
    37     7     8    2
    38    17    18    1
    39    12    10   am
    40   107   106    2
    41   100   101    1
    42   100    97    1
    43   103   101   am
    44   106   105    1
    45   101   102    2
    46    18    19    1
    47    15    16    2
    48     9    10    1
    49    10    11    2
    50    19    20    1
    51    22    21    1
    52   142   141    1
    53   142   143    1
    54    98    97    1
    55    98    99    2
    56    97    96    1
    57   105   104    1
    58   105   108    1
    59    20    21    2
    60    21    23    1
    61   143   144    2
    62   143   147   am
    63   147   148    1
    64    96    90   am
    65   109   108    1
    66   109   110    1
    67   109   111    1
    68   148   149    1
    69   156   155    1
    70   150   149    2
    71   149   151   am
    72    75    74   ar
    73    68    69    1
    74    72    69    1
    75    72    73    1
    76    69    70    1
    77    90    91    2
    78    90    89    1
    79   151   152    1
    80   152   155    1
    81   152   153    1
    82    74    73    1
    83    74    76   ar
    84     4     3    2
    85   155   157    1
    86    89    92    1
    87    89    88    1
    88    92    93    1
    89    47    48    1
    90   154   153    2
    91    70    71    2
    92   153   158   am
    93     3     2    1
    94    51    48    1
    95    51    52    1
    96    93    94    1
    97    53    52    1
    98    53    54    1
    99    94    95    1
   100    88    83   am
   101     1     2    1
   102    48    49    1
   103   158   159    1
   104    84    83    2
   105    54    55    1
   106    83    82    1
   107   160   161    2
   108   160   159    1
   109    49    50    2
   110   159   162    1
   111    45    44    1
   112    67    66    1
   113    82    81    1
   114    82    85    1
   115    32    30   ar
   116    32    34   ar
   117    77    78    1
   118    30    29   ar
   119    81    79   am
   120    25    24    1
   121    25    26    1
   122    25    28    1
   123    44    46    1
   124    44    43    2
   125    26    27    2
   126    42    43    1
   127    42    41    1
   128    85    86    1
   129    85    87    1
   130    79    80    2
   131    79    78    1
   132    38    39    2
   133    38    37    1
   134    35    34    1
   135    66    64   ar
   136    66    65   ar
   137    34    33   ar
   138    40    41    1
   139    40    37    1
   140    29    28    1
   141    29    31   ar
   142    64    62   ar
   143    37    36    1
   144    65    63   ar
   145    33    31   ar
   146    62    61   ar
   147    63    61   ar
   148    61    60    1
   149    56    57    1
   150    60    57    1
   151    57    58    1
   152    58    59    2
