@<TRIPOS>MOLECULE
tmp/1ktcA02.pdb
 139 132 0 0 0
SMALL
GASTEIGER

@<TRIPOS>ATOM
      1  N         55.5240   39.1290   30.2200 N.3    16  TRP16      -0.1241
      2  CA        55.7830   37.6910   30.1270 C.3    16  TRP16       0.1605
      3  C         54.9450   36.5800   30.7740 C.2    16  TRP16       0.2264
      4  O         54.3200   35.8160   30.0630 O.2    16  TRP16      -0.2867
      5  CB        57.2500   37.3950   30.4270 C.3    16  TRP16       0.0550
      6  CG        57.5650   35.9960   30.0640 C.ar   16  TRP16       0.0003
      7  CD1       57.7480   34.9670   30.9220 C.ar   16  TRP16       0.0946
      8  CD2       57.6230   35.4440   28.7340 C.ar   16  TRP16       0.0152
      9  NE1       57.9090   33.7980   30.2190 N.ar   16  TRP16      -0.2442
     10  CE2       57.8300   34.0560   28.8840 C.ar   16  TRP16       0.0810
     11  CE3       57.5030   35.9780   27.4510 C.ar   16  TRP16       0.0012
     12  CZ2       57.9390   33.1950   27.7710 C.ar   16  TRP16       0.0191
     13  CZ3       57.6120   35.1200   26.3510 C.ar   16  TRP16       0.0001
     14  CH2       57.8220   33.7430   26.5220 C.ar   16  TRP16       0.0015
     15  N         58.4520   42.2270   27.1220 N.3    61  ASP61      -0.1225
     16  CA        59.3660   41.1100   27.3050 C.3    61  ASP61       0.1805
     17  C         59.6810   40.5110   25.9450 C.2    61  ASP61       0.2597
     18  O         59.7030   41.2360   24.9600 O.2    61  ASP61      -0.2718
     19  CB        58.7890   40.0620   28.2570 C.3    61  ASP61       0.1424
     20  CG        59.8610   39.2590   28.9660 C.2    61  ASP61       0.3668
     21  OD1       60.1790   38.1730   28.4600 O.co2  61  ASP61      -0.2456
     22  OD2       60.3760   39.6930   30.0210 O.co2  61  ASP61      -0.2456
     23  N         59.9360   39.2110   25.8780 N.am   62  ASP62      -0.1974
     24  CA        60.2940   38.5630   24.6200 C.3    62  ASP62       0.1709
     25  C         59.2030   38.5960   23.5730 C.2    62  ASP62       0.2293
     26  O         58.0400   38.8590   23.8930 O.2    62  ASP62      -0.2864
     27  CB        60.6950   37.1160   24.8990 C.3    62  ASP62       0.1436
     28  CG        61.5990   36.5460   23.8340 C.2    62  ASP62       0.3671
     29  OD1       61.9280   37.2540   22.8620 O.co2  62  ASP62      -0.2456
     30  OD2       61.9750   35.3700   23.9590 O.co2  62  ASP62      -0.2456
     31  N         62.9510   44.4130   26.3060 N.3   103  TYR103     -0.1241
     32  CA        63.6510   43.1460   26.5060 C.3   103  TYR103      0.1605
     33  C         64.6690   42.8170   25.4140 C.2   103  TYR103      0.2264
     34  O         64.4450   43.0830   24.2340 O.2   103  TYR103     -0.2867
     35  CB        62.6130   42.0260   26.6190 C.3   103  TYR103      0.0534
     36  CG        63.1520   40.6090   26.4770 C.ar  103  TYR103     -0.0201
     37  CD1       63.3150   39.8160   27.5950 C.ar  103  TYR103     -0.0009
     38  CD2       63.4670   40.0610   25.2230 C.ar  103  TYR103     -0.0009
     39  CE1       63.7710   38.5310   27.4950 C.ar  103  TYR103      0.0417
     40  CE2       63.9250   38.7630   25.1120 C.ar  103  TYR103      0.0417
     41  CZ        64.0780   38.0000   26.2520 C.ar  103  TYR103      0.1957
     42  OH        64.5600   36.7000   26.1720 O.3   103  TYR103     -0.2866
     43  N         65.4100   33.7160   24.0710 N.3   111  CYS111     -0.1221
     44  CA        64.8820   32.3980   24.4400 C.3   111  CYS111      0.1808
     45  C         63.6780   32.0260   23.5620 C.2   111  CYS111      0.2601
     46  O         63.3650   30.8450   23.3730 O.2   111  CYS111     -0.2717
     47  CB        64.4460   32.3940   25.9020 C.3   111  CYS111      0.0970
     48  SG        65.8590   32.6700   27.0780 S.3   111  CYS111     -0.0800
     49  N         63.0240   33.0410   23.0310 N.am  112  GLY112     -0.1957
     50  CA        61.8130   32.8470   22.2140 C.3   112  GLY112      0.1869
     51  C         62.1220   32.7270   20.7290 C.2   112  GLY112      0.2309
     52  O         61.2070   32.5000   19.9460 O.2   112  GLY112     -0.2863
     53  N         65.6500   44.5360   30.3410 N.3   138  LYS138     -0.1245
     54  CA        65.8600   43.2300   30.9530 C.3   138  LYS138      0.1561
     55  C         66.6850   42.4710   29.9270 C.2   138  LYS138      0.2260
     56  O         66.2470   42.2830   28.7870 O.2   138  LYS138     -0.2867
     57  CB        64.5220   42.5100   31.1960 C.3   138  LYS138      0.0271
     58  CG        64.6540   41.0340   31.6200 C.3   138  LYS138      0.0035
     59  CD        63.3090   40.3650   31.6670 C.3   138  LYS138      0.0206
     60  CE        63.3760   38.8910   31.9250 C.3   138  LYS138      0.1093
     61  NZ        62.0270   38.2510   31.9500 N.3   138  LYS138     -0.1314
     62  N         68.1440   39.0410   28.9430 N.3   140  ASP140     -0.1239
     63  CA        68.0920   37.5870   29.1120 C.3   140  ASP140      0.1674
     64  C         69.4240   36.9440   28.7070 C.2   140  ASP140      0.2266
     65  O         70.2790   37.6030   28.1350 O.2   140  ASP140     -0.2867
     66  CB        66.9530   37.0290   28.2570 C.3   140  ASP140      0.1410
     67  CG        66.3190   35.8130   28.8470 C.2   140  ASP140      0.3668
     68  OD1       66.8880   35.1460   29.7190 O.co2 140  ASP140     -0.2456
     69  OD2       65.2130   35.5260   28.4060 O.co2 140  ASP140     -0.2456
     70  N         69.7490   38.7360   33.8130 N.3   172  SER172     -0.1217
     71  CA        69.4010   37.3460   34.0760 C.3   172  SER172      0.1889
     72  C         70.6320   36.4730   34.2050 C.2   172  SER172      0.2288
     73  O         70.5230   35.2660   34.3700 O.2   172  SER172     -0.2866
     74  CB        68.5050   36.7980   32.9600 C.3   172  SER172      0.2089
     75  OG        67.2760   37.4970   32.8340 O.3   172  SER172     -0.2183
     76  N         70.8940   33.4730   36.8530 N.3   175  ALA175     -0.1231
     77  CA        70.0320   32.3250   36.6080 C.3   175  ALA175      0.1694
     78  C         70.6680   31.2990   35.6780 C.2   175  ALA175      0.2592
     79  O         70.5350   30.0850   35.8800 O.2   175  ALA175     -0.2718
     80  CB        68.7090   32.8000   36.0350 C.3   175  ALA175      0.0304
     81  N         71.3800   31.7920   34.6700 N.am  176  TYR176     -0.1976
     82  CA        72.0040   30.9010   33.7010 C.3   176  TYR176      0.1639
     83  C         73.2480   30.2330   34.2570 C.2   176  TYR176      0.2290
     84  O         73.7250   29.2470   33.7230 O.2   176  TYR176     -0.2864
     85  CB        72.3210   31.6700   32.4090 C.3   176  TYR176      0.0560
     86  CG        71.0720   32.0000   31.6280 C.ar  176  TYR176     -0.0198
     87  CD1       70.5220   31.0760   30.7330 C.ar  176  TYR176     -0.0009
     88  CD2       70.3730   33.1800   31.8650 C.ar  176  TYR176     -0.0009
     89  CE1       69.3140   31.2990   30.1110 C.ar  176  TYR176      0.0417
     90  CE2       69.1520   33.4170   31.2290 C.ar  176  TYR176      0.0417
     91  CZ        68.6330   32.4650   30.3600 C.ar  176  TYR176      0.1957
     92  OH        67.4210   32.6860   29.7620 O.3   176  TYR176     -0.2866
     93  N         67.7340   38.2850   37.9500 N.3   197  ARG197     -0.1245
     94  CA        66.9040   37.1060   38.1210 C.3   197  ARG197      0.1563
     95  C         67.8640   36.0080   38.5680 C.2   197  ARG197      0.2260
     96  O         68.7290   35.5770   37.8000 O.2   197  ARG197     -0.2867
     97  CB        66.2530   36.7410   36.7850 C.3   197  ARG197      0.0307
     98  CG        64.9790   37.5180   36.4840 C.3   197  ARG197      0.0489
     99  CD        63.8050   37.0220   37.3010 C.3   197  ARG197      0.2205
    100  NE        63.6850   35.5820   37.1650 N.pl3 197  ARG197     -0.0865
    101  CZ        63.2930   34.9730   36.0530 C.cat 197  ARG197      0.5346
    102  NH1       62.9680   35.6520   34.9680 N.pl3 197  ARG197      0.1354
    103  NH2       63.2470   33.6590   36.0180 N.pl3 197  ARG197      0.1354
    104  N         66.9310   32.8900   39.8070 N.3   199  TYR199     -0.1241
    105  CA        66.4240   31.5370   39.6740 C.3   199  TYR199      0.1605
    106  C         65.4390   31.2670   38.5370 C.2   199  TYR199      0.2264
    107  O         65.2950   32.0680   37.6300 O.2   199  TYR199     -0.2867
    108  CB        65.8250   31.2000   41.0540 C.3   199  TYR199      0.0534
    109  CG        65.4760   29.7620   41.3350 C.ar  199  TYR199     -0.0201
    110  CD1       66.4150   28.7370   41.2010 C.ar  199  TYR199     -0.0009
    111  CD2       64.1940   29.4300   41.7640 C.ar  199  TYR199     -0.0009
    112  CE1       66.0650   27.4190   41.4780 C.ar  199  TYR199      0.0417
    113  CE2       63.8450   28.1330   42.0600 C.ar  199  TYR199      0.0417
    114  CZ        64.7810   27.1290   41.9100 C.ar  199  TYR199      0.1957
    115  OH        64.4220   25.8390   42.2050 O.3   199  TYR199     -0.2866
    116  N         62.1140   30.6340   36.1070 N.3   201  ASP201     -0.1239
    117  CA        60.9540   31.4420   35.7400 C.3   201  ASP201      0.1674
    118  C         59.7570   30.9950   36.5740 C.2   201  ASP201      0.2266
    119  O         59.5430   29.7830   36.7810 O.2   201  ASP201     -0.2867
    120  CB        60.5690   31.2400   34.2690 C.3   201  ASP201      0.1410
    121  CG        61.6620   31.6640   33.2950 C.2   201  ASP201      0.3668
    122  OD1       62.6460   32.3370   33.6930 O.co2 201  ASP201     -0.2456
    123  OD2       61.5260   31.2840   32.1050 O.co2 201  ASP201     -0.2456
    124  N         61.3700   36.9780   40.4560 N.3   236  ASP236     -0.1225
    125  CA        60.4370   37.0100   39.3340 C.3   236  ASP236      0.1805
    126  C         59.0850   37.6800   39.5850 C.2   236  ASP236      0.2597
    127  O         58.8030   38.1420   40.6810 O.2   236  ASP236     -0.2718
    128  CB        60.2420   35.6080   38.7460 C.3   236  ASP236      0.1424
    129  CG        60.0830   35.6330   37.2000 C.2   236  ASP236      0.3668
    130  OD1       59.9340   36.7220   36.5810 O.co2 236  ASP236     -0.2456
    131  OD2       60.1020   34.5380   36.5870 O.co2 236  ASP236     -0.2456
    132  N         58.2640   37.7060   38.5420 N.am  237  MET237     -0.1979
    133  CA        56.9500   38.3400   38.5360 C.3   237  MET237      0.1605
    134  C         55.8810   37.8910   39.5200 C.2   237  MET237      0.2287
    135  O         55.8230   36.7200   39.9150 O.2   237  MET237     -0.2864
    136  CB        56.3650   38.2250   37.1210 C.3   237  MET237      0.0413
    137  CG        57.1710   38.9010   36.0420 C.3   237  MET237      0.0598
    138  SD        56.8010   38.3300   34.3210 S.3   237  MET237     -0.1393
    139  CE        57.7730   36.9620   34.2140 C.3   237  MET237      0.0692
@<TRIPOS>BOND
     1    52    51    2
     2    51    50    1
     3    50    49    1
     4    29    28   ar
     5    49    45   am
     6    46    45    2
     7    45    44    1
     8    25    26    2
     9    25    24    1
    10    28    30   ar
    11    28    27    1
    12    43    44    1
    13    34    33    2
    14    44    47    1
    15    24    27    1
    16    24    23    1
    17    18    17    2
    18    40    38   ar
    19    40    41   ar
    20    38    36   ar
    21    33    32    1
    22    23    17   am
    23    47    48    1
    24    17    16    1
    25    42    41    1
    26    41    39   ar
    27    31    32    1
    28    13    14   ar
    29    13    11   ar
    30    36    35    1
    31    36    37   ar
    32    32    35    1
    33    14    12   ar
    34    15    16    1
    35    16    19    1
    36    11     8   ar
    37    39    37   ar
    38    12    10   ar
    39    65    64    2
    40    66    67    1
    41    66    63    1
    42    19    20    1
    43    69    67   ar
    44    21    20   ar
    45    64    63    1
    46     8    10   ar
    47     8     6   ar
    48    56    55    2
    49    67    68   ar
    50    10     9   ar
    51    62    63    1
    52    20    22   ar
    53    92    91    1
    54    55    54    1
    55     4     3    2
    56     6     5    1
    57     6     7   ar
    58    89    91   ar
    59    89    87   ar
    60     2     1    1
    61     2     5    1
    62     2     3    1
    63     9     7   ar
    64    53    54    1
    65    91    90   ar
    66    87    86   ar
    67    54    57    1
    68    57    58    1
    69    90    88   ar
    70    58    59    1
    71    86    88   ar
    72    86    85    1
    73    59    60    1
    74    60    61    1
    75   123   121   ar
    76    85    82    1
    77    75    74    1
    78    74    71    1
    79   121   122   ar
    80   121   120    1
    81    82    83    1
    82    82    81    1
    83    84    83    2
    84    70    71    1
    85    71    72    1
    86    72    73    2
    87   139   138    1
    88   120   117    1
    89   138   137    1
    90    81    78   am
    91   102   101    1
    92    78    79    2
    93    78    77    1
    94   117   116    1
    95   117   118    1
    96   103   101    1
    97    80    77    1
    98   137   136    1
    99   101   100    2
   100    98    97    1
   101    98    99    1
   102   118   119    2
   103   130   129   ar
   104   131   129   ar
   105    77    76    1
   106    97    94    1
   107   136   133    1
   108   100    99    1
   109   129   128    1
   110   107   106    2
   111    96    95    2
   112    93    94    1
   113    94    95    1
   114   133   132    1
   115   133   134    1
   116   106   105    1
   117   132   126   am
   118   128   125    1
   119   125   126    1
   120   125   124    1
   121   134   135    2
   122   126   127    2
   123   105   104    1
   124   105   108    1
   125   108   109    1
   126   110   109   ar
   127   110   112   ar
   128   109   111   ar
   129   112   114   ar
   130   111   113   ar
   131   114   113   ar
   132   114   115    1
