@<TRIPOS>MOLECULE
tmp/1ktgA00.pdb
 126 121 0 0 0
SMALL
GASTEIGER

@<TRIPOS>ATOM
      1  N         12.8740   -1.6130   29.9660 N.3    26  TYR26      -0.1241
      2  CA        13.3110   -1.2880   31.3170 C.3    26  TYR26       0.1605
      3  C         13.6040    0.2160   31.3610 C.2    26  TYR26       0.2264
      4  O         14.1360    0.7640   30.4040 O.2    26  TYR26      -0.2867
      5  CB        14.5770   -2.0870   31.6500 C.3    26  TYR26       0.0534
      6  CG        15.6940   -2.1110   30.6500 C.ar   26  TYR26      -0.0201
      7  CD1       16.3970   -0.9120   30.4100 C.ar   26  TYR26      -0.0009
      8  CD2       16.0600   -3.2320   29.9170 C.ar   26  TYR26      -0.0009
      9  CE1       17.4440   -0.8680   29.5110 C.ar   26  TYR26       0.0417
     10  CE2       17.0920   -3.1920   28.9830 C.ar   26  TYR26       0.0417
     11  CZ        17.7620   -1.9930   28.7930 C.ar   26  TYR26       0.1957
     12  OH        18.8020   -1.9800   27.8660 O.3    26  TYR26      -0.2866
     13  N         15.5070    3.5780   31.6620 N.3    28  PRO28      -0.2116
     14  CA        14.7210    4.7770   31.3860 C.3    28  PRO28       0.1372
     15  C         13.8640    4.6920   30.0930 C.2    28  PRO28       0.2244
     16  O         13.3540    5.7100   29.6470 O.2    28  PRO28      -0.2868
     17  CB        15.8210    5.8470   31.2370 C.3    28  PRO28       0.0268
     18  CG        17.0930    5.0850   31.1530 C.3    28  PRO28       0.0207
     19  CD        16.8100    3.6190   30.9890 C.3    28  PRO28       0.0892
     20  N         14.7200    4.2380   27.0440 N.3    30  HIS30      -0.1241
     21  CA        15.3170    4.9720   25.9320 C.3    30  HIS30       0.1621
     22  C         15.2590    4.1480   24.6560 C.2    30  HIS30       0.2264
     23  O         15.0150    2.9430   24.6750 O.2    30  HIS30      -0.2867
     24  CB        16.7630    5.3140   26.2400 C.3    30  HIS30       0.0745
     25  CG        17.5900    4.1160   26.5520 C.ar   30  HIS30       0.0817
     26  ND1       17.2910    3.2690   27.5940 N.ar   30  HIS30      -0.2268
     27  CD2       18.6800    3.5980   25.9430 C.ar   30  HIS30       0.1154
     28  CE1       18.1730    2.2860   27.6260 C.ar   30  HIS30       0.1986
     29  NE2       19.0260    2.4620   26.6330 N.ar   30  HIS30      -0.2212
     30  N         17.1660    3.0260   21.0070 N.3    32  THR32      -0.1218
     31  CA        18.4090    2.8680   20.2550 C.3    32  THR32       0.1862
     32  C         18.1410    1.8840   19.1360 C.2    32  THR32       0.2287
     33  O         17.1220    1.1910   19.1500 O.2    32  THR32      -0.2866
     34  CB        19.5490    2.2900   21.1150 C.3    32  THR32       0.1770
     35  OG1       19.3580    0.8780   21.2690 O.3    32  THR32      -0.2211
     36  CG2       19.5690    2.8580   22.5360 C.3    32  THR32       0.0375
     37  N         21.1960   -3.3690   19.4200 N.3    35  LYS35      -0.1245
     38  CA        22.5990   -3.3850   19.8410 C.3    35  LYS35       0.1561
     39  C         22.7430   -4.0530   21.1940 C.2    35  LYS35       0.2260
     40  O         21.7940   -4.1130   21.9630 O.2    35  LYS35      -0.2867
     41  CB        23.1530   -1.9620   19.9220 C.3    35  LYS35       0.0271
     42  CG        22.4820   -1.1010   20.9690 C.3    35  LYS35       0.0035
     43  CD        23.2070   -1.1100   22.3010 C.3    35  LYS35       0.0206
     44  CE        22.6780   -0.0200   23.2510 C.3    35  LYS35       0.1093
     45  NZ        21.2360   -0.1850   23.6450 N.3    35  LYS35      -0.1314
     46  N         30.2090    5.0620   19.5390 N.3    73  LEU73      -0.1245
     47  CA        29.7610    5.9990   20.5510 C.3    73  LEU73       0.1561
     48  C         30.3780    5.5970   21.8880 C.2    73  LEU73       0.2260
     49  O         30.5750    4.4270   22.1380 O.2    73  LEU73      -0.2867
     50  CB        28.2370    5.9610   20.6820 C.3    73  LEU73       0.0270
     51  CG        27.3840    6.3700   19.4760 C.3    73  LEU73       0.0019
     52  CD1       25.9310    6.4450   19.8980 C.3    73  LEU73       0.0001
     53  CD2       27.8270    7.7000   18.8630 C.3    73  LEU73       0.0001
     54  N         29.9190    6.3190   26.1040 N.3    75  TYR75      -0.1227
     55  CA        29.1750    6.9600   27.1870 C.3    75  TYR75       0.1736
     56  C         29.2200    6.1530   28.4680 C.2    75  TYR75       0.2595
     57  O         29.6120    4.9840   28.4700 O.2    75  TYR75      -0.2718
     58  CB        27.7270    7.2280   26.7950 C.3    75  TYR75       0.0548
     59  CG        26.9490    6.0400   26.2840 C.ar   75  TYR75      -0.0200
     60  CD1       26.9690    5.7030   24.9360 C.ar   75  TYR75      -0.0009
     61  CD2       26.1610    5.2770   27.1360 C.ar   75  TYR75      -0.0009
     62  CE1       26.2440    4.6330   24.4510 C.ar   75  TYR75       0.0417
     63  CE2       25.4290    4.2030   26.6560 C.ar   75  TYR75       0.0417
     64  CZ        25.4760    3.8870   25.3120 C.ar   75  TYR75       0.1957
     65  OH        24.7380    2.8340   24.8300 O.3    75  TYR75      -0.2866
     66  N         28.8060    6.7870   29.5570 N.am   76  GLU76      -0.1965
     67  CA        28.8120    6.1380   30.8560 C.3    76  GLU76       0.1733
     68  C         27.5750    5.2710   31.0290 C.2    76  GLU76       0.2616
     69  O         26.4400    5.7170   30.8460 O.2    76  GLU76      -0.2715
     70  CB        28.8970    7.1630   31.9810 C.3    76  GLU76       0.0429
     71  CG        29.1470    6.5240   33.3370 C.3    76  GLU76       0.1163
     72  CD        29.4230    7.5300   34.4350 C.2    76  GLU76       0.3649
     73  OE1       30.5910    7.9390   34.5990 O.co2  76  GLU76      -0.2457
     74  OE2       28.4680    7.9040   35.1450 O.co2  76  GLU76      -0.2457
     75  N         27.8120    4.0080   31.3510 N.am   77  ALA77      -0.1963
     76  CA        26.7400    3.0570   31.5760 C.3    77  ALA77       0.1728
     77  C         27.1650    2.2350   32.7740 C.2    77  ALA77       0.2616
     78  O         28.2480    1.6480   32.7720 O.2    77  ALA77      -0.2715
     79  CB        26.5510    2.1740   30.3670 C.3    77  ALA77       0.0334
     80  N         26.3270    2.2080   33.8040 N.am   78  LYS78      -0.1977
     81  CA        26.6260    1.4550   35.0170 C.3    78  LYS78       0.1596
     82  C         27.9050    1.9490   35.6820 C.2    78  LYS78       0.2287
     83  O         28.7430    1.1500   36.1230 O.2    78  LYS78      -0.2864
     84  CB        26.7280   -0.0380   34.7030 C.3    78  LYS78       0.0298
     85  CG        25.3890   -0.6030   34.2200 C.3    78  LYS78       0.0038
     86  CD        25.3630   -2.1170   34.2130 C.3    78  LYS78       0.0206
     87  CE        26.1800   -2.6610   33.0680 C.3    78  LYS78       0.1093
     88  NZ        25.5470   -2.3900   31.7420 N.3    78  LYS78      -0.1314
     89  N         31.4340    2.8160   28.3720 N.3    82  LYS82      -0.1245
     90  CA        30.9140    1.7940   27.4990 C.3    82  LYS82       0.1561
     91  C         31.1220    2.3060   26.0890 C.2    82  LYS82       0.2260
     92  O         30.9660    3.4980   25.8410 O.2    82  LYS82      -0.2867
     93  CB        29.4280    1.5930   27.7680 C.3    82  LYS82       0.0271
     94  CG        28.7230    0.6340   26.8380 C.3    82  LYS82       0.0035
     95  CD        27.3020    0.4030   27.3660 C.3    82  LYS82       0.0206
     96  CE        26.4650   -0.4860   26.5110 C.3    82  LYS82       0.1093
     97  NZ        25.1980   -0.8380   27.2170 N.3    82  LYS82      -0.1314
     98  N         20.0120   11.3830   22.6160 N.3   120  TYR120     -0.1241
     99  CA        21.4130   11.6530   22.9400 C.3   120  TYR120      0.1605
    100  C         22.1520   12.3360   21.7880 C.2   120  TYR120      0.2264
    101  O         22.1550   11.8500   20.6580 O.2   120  TYR120     -0.2867
    102  CB        22.1150   10.3550   23.3240 C.3   120  TYR120      0.0534
    103  CG        21.3570    9.5980   24.3860 C.ar  120  TYR120     -0.0201
    104  CD1       20.6900    8.4200   24.0880 C.ar  120  TYR120     -0.0009
    105  CD2       21.2650   10.0900   25.6750 C.ar  120  TYR120     -0.0009
    106  CE1       19.9760    7.7340   25.0690 C.ar  120  TYR120      0.0417
    107  CE2       20.5540    9.4140   26.6550 C.ar  120  TYR120      0.0417
    108  CZ        19.9160    8.2440   26.3440 C.ar  120  TYR120      0.1957
    109  OH        19.2110    7.5710   27.3220 O.3   120  TYR120     -0.2866
    110  N         25.2960   12.6190   20.7930 N.3   122  GLU122     -0.1231
    111  CA        26.2490   11.8160   20.0170 C.3   122  GLU122      0.1699
    112  C         25.5440   10.8540   19.0670 C.2   122  GLU122      0.2592
    113  O         26.0070   10.6440   17.9520 O.2   122  GLU122     -0.2718
    114  CB        27.1860   10.9940   20.9150 C.3   122  GLU122      0.0402
    115  CG        27.8300   11.7230   22.0780 C.3   122  GLU122      0.1161
    116  CD        28.3450   13.0860   21.7140 C.2   122  GLU122      0.3649
    117  OE1       28.9880   13.2190   20.6440 O.co2 122  GLU122     -0.2457
    118  OE2       28.1100   14.0260   22.5080 O.co2 122  GLU122     -0.2457
    119  N         24.4500   10.2370   19.5130 N.am  123  MET123     -0.1979
    120  CA        23.6970    9.3480   18.6290 C.3   123  MET123      0.1605
    121  C         23.1560   10.1750   17.4640 C.2   123  MET123      0.2287
    122  O         23.1830    9.7300   16.3120 O.2   123  MET123     -0.2864
    123  CB        22.5480    8.6420   19.3520 C.3   123  MET123      0.0413
    124  CG        21.6630    7.8160   18.4250 C.3   123  MET123      0.0598
    125  SD        22.5340    6.4730   17.5670 S.3   123  MET123     -0.1393
    126  CE        22.6980    5.2840   18.8930 C.3   123  MET123      0.0692
@<TRIPOS>BOND
     1   122   121    2
     2   121   120    1
     3   125   124    1
     4   125   126    1
     5   113   112    2
     6   124   123    1
     7   120   123    1
     8   120   119    1
     9    53    51    1
    10   112   119   am
    11   112   111    1
    12    32    33    2
    13    32    31    1
    14    37    38    1
    15    51    52    1
    16    51    50    1
    17    46    47    1
    18    38    41    1
    19    38    39    1
    20    41    42    1
    21   111   110    1
    22   111   114    1
    23    31    30    1
    24    31    34    1
    25    47    50    1
    26    47    48    1
    27   117   116   ar
    28   101   100    2
    29   114   115    1
    30    42    43    1
    31    34    35    1
    32    34    36    1
    33    39    40    2
    34   116   115    1
    35   116   118   ar
    36   100    99    1
    37    48    49    2
    38    43    44    1
    39    98    99    1
    40    99   102    1
    41    44    45    1
    42   102   103    1
    43   104   103   ar
    44   104   106   ar
    45   103   105   ar
    46    62    60   ar
    47    62    64   ar
    48    22    23    2
    49    22    21    1
    50    65    64    1
    51    60    59   ar
    52   106   108   ar
    53    64    63   ar
    54   105   107   ar
    55    92    91    2
    56    21    24    1
    57    21    20    1
    58    27    25   ar
    59    27    29   ar
    60    91    90    1
    61    54    55    1
    62    24    25    1
    63    59    58    1
    64    59    61   ar
    65   108   107   ar
    66   108   109    1
    67    96    97    1
    68    96    95    1
    69    25    26   ar
    70    29    28   ar
    71    63    61   ar
    72    58    55    1
    73    94    95    1
    74    94    93    1
    75    55    56    1
    76    90    93    1
    77    90    89    1
    78    26    28   ar
    79    12    11    1
    80    56    57    2
    81    56    66   am
    82    11    10   ar
    83    11     9   ar
    84    10     8   ar
    85     9     7   ar
    86    66    67    1
    87    16    15    2
    88     8     6   ar
    89     1     2    1
    90    15    14    1
    91    79    76    1
    92     4     3    2
    93     7     6   ar
    94     6     5    1
    95    69    68    2
    96    67    68    1
    97    67    70    1
    98    19    18    1
    99    19    13    1
   100    68    75   am
   101    18    17    1
   102    17    14    1
   103     2     3    1
   104     2     5    1
   105    75    76    1
   106    14    13    1
   107    76    77    1
   108    88    87    1
   109    70    71    1
   110    78    77    2
   111    77    80   am
   112    87    86    1
   113    71    72    1
   114    80    81    1
   115    86    85    1
   116    85    84    1
   117    72    73   ar
   118    72    74   ar
   119    84    81    1
   120    81    82    1
   121    82    83    2
