@<TRIPOS>MOLECULE
tmp/1ktiA00.pdb
 174 167 0 0 0
SMALL
GASTEIGER

@<TRIPOS>ATOM
      1  N         29.4090   25.4850   35.9210 N.3   121  ASN121     -0.1225
      2  CA        29.4070   26.7020   35.1120 C.3   121  ASN121      0.1785
      3  C         28.6820   26.5290   33.7880 C.2   121  ASN121      0.2598
      4  O         27.9570   27.4130   33.3460 O.2   121  ASN121     -0.2718
      5  CB        30.8420   27.1320   34.8130 C.3   121  ASN121      0.1169
      6  CG        31.4660   27.8970   35.9530 C.2   121  ASN121      0.2627
      7  OD1       31.1060   29.0470   36.2050 O.2   121  ASN121     -0.2716
      8  ND2       32.3960   27.2660   36.6550 N.am  121  ASN121     -0.0877
      9  N         28.9000   25.3850   33.1540 N.am  122  GLY122     -0.1942
     10  CA        28.2750   25.1440   31.8730 C.3   122  GLY122      0.2014
     11  C         28.4780   23.7380   31.3640 C.2   122  GLY122      0.2639
     12  O         28.1480   22.7770   32.0530 O.2   122  GLY122     -0.2714
     13  N         29.0450   23.6310   30.1630 N.am  123  GLY123     -0.1939
     14  CA        29.2530   22.3420   29.5210 C.3   123  GLY123      0.2014
     15  C         29.9820   21.2410   30.2660 C.2   123  GLY123      0.2638
     16  O         29.5210   20.0970   30.2990 O.2   123  GLY123     -0.2714
     17  N         31.1300   21.5740   30.8420 N.am  124  LEU124     -0.1977
     18  CA        31.9260   20.6010   31.5760 C.3   124  LEU124      0.1596
     19  C         31.1560   20.0820   32.7940 C.2   124  LEU124      0.2287
     20  O         31.1720   18.8820   33.0860 O.2   124  LEU124     -0.2864
     21  CB        33.2580   21.2470   31.9890 C.3   124  LEU124      0.0297
     22  CG        34.1940   20.4670   32.9100 C.3   124  LEU124      0.0022
     23  CD1       35.6320   20.9110   32.6850 C.3   124  LEU124      0.0001
     24  CD2       33.7700   20.6960   34.3530 C.3   124  LEU124      0.0001
     25  N         28.1530   17.8940   31.6210 N.3   127  LEU127     -0.1245
     26  CA        28.6230   16.6100   31.0970 C.3   127  LEU127      0.1561
     27  C         28.7660   15.6070   32.2380 C.2   127  LEU127      0.2260
     28  O         28.3740   14.4470   32.1190 O.2   127  LEU127     -0.2867
     29  CB        29.9730   16.7670   30.3850 C.3   127  LEU127      0.0270
     30  CG        30.4120   15.5110   29.6100 C.3   127  LEU127      0.0019
     31  CD1       29.5420   15.3620   28.3630 C.3   127  LEU127      0.0001
     32  CD2       31.8850   15.6090   29.2230 C.3   127  LEU127      0.0001
     33  N         34.2900   30.9410   36.5650 N.3   261  ASN261     -0.1225
     34  CA        35.0180   31.0840   35.2980 C.3   261  ASN261      0.1785
     35  C         34.7860   29.9570   34.2910 C.2   261  ASN261      0.2597
     36  O         35.1770   28.8150   34.5440 O.2   261  ASN261     -0.2718
     37  CB        36.5290   31.1940   35.5690 C.3   261  ASN261      0.1169
     38  CG        36.8780   32.3590   36.4530 C.2   261  ASN261      0.2627
     39  OD1       36.6480   33.5130   36.0910 O.2   261  ASN261     -0.2716
     40  ND2       37.4590   32.0710   37.6130 N.am  261  ASN261     -0.0877
     41  N         34.1590   30.2750   33.1640 N.am  262  ASP262     -0.1960
     42  CA        33.9170   29.2740   32.1350 C.3   262  ASP262      0.1840
     43  C         35.0110   29.4710   31.0750 C.2   262  ASP262      0.2622
     44  O         35.0590   30.5190   30.4090 O.2   262  ASP262     -0.2715
     45  CB        32.5290   29.5040   31.4920 C.3   262  ASP262      0.1450
     46  CG        32.1230   28.4040   30.5140 C.2   262  ASP262      0.3671
     47  OD1       31.7660   27.2870   30.9720 O.co2 262  ASP262     -0.2456
     48  OD2       32.1500   28.6500   29.2860 O.co2 262  ASP262     -0.2456
     49  N         35.9250   28.5150   30.9420 N.am  263  ASN263     -0.1958
     50  CA        36.9760   28.6500   29.9450 C.3   263  ASN263      0.1819
     51  C         37.8790   29.8500   30.2130 C.2   263  ASN263      0.2621
     52  O         37.9560   30.7860   29.3850 O.2   263  ASN263     -0.2715
     53  CB        36.3230   28.7010   28.5540 C.3   263  ASN263      0.1195
     54  CG        35.8570   27.3330   28.0810 C.2   263  ASN263      0.2630
     55  OD1       34.7440   26.8890   28.3740 O.2   263  ASN263     -0.2716
     56  ND2       36.7230   26.6580   27.3290 N.am  263  ASN263     -0.0877
     57  N         38.5220   29.8280   31.3900 N.am  264  PHE264     -0.1974
     58  CA        39.4500   30.8820   31.8090 C.3   264  PHE264      0.1639
     59  C         40.1160   30.4760   33.1250 C.2   264  PHE264      0.2290
     60  O         39.4770   29.8590   33.9860 O.2   264  PHE264     -0.2864
     61  CB        38.7190   32.1930   32.0280 C.3   264  PHE264      0.0560
     62  CG        39.6180   33.3700   32.2130 C.ar  264  PHE264     -0.0200
     63  CD1       40.4280   33.8170   31.1730 C.ar  264  PHE264     -0.0042
     64  CD2       39.6610   34.0340   33.4360 C.ar  264  PHE264     -0.0042
     65  CE1       41.2770   34.9040   31.3410 C.ar  264  PHE264     -0.0003
     66  CE2       40.5180   35.1330   33.6120 C.ar  264  PHE264     -0.0003
     67  CZ        41.3200   35.5620   32.5680 C.ar  264  PHE264     -0.0000
     68  N         39.0180   17.2090   33.2280 N.3   308  ASP308     -0.1239
     69  CA        39.8980   18.3530   32.9850 C.3   308  ASP308      0.1674
     70  C         41.0570   18.2300   33.9750 C.2   308  ASP308      0.2266
     71  O         41.2080   17.1920   34.6080 O.2   308  ASP308     -0.2867
     72  CB        39.1470   19.6740   33.1720 C.3   308  ASP308      0.1410
     73  CG        39.7470   20.8060   32.3500 C.2   308  ASP308      0.3668
     74  OD1       38.9790   21.6850   31.9040 O.co2 308  ASP308     -0.2456
     75  OD2       40.9820   20.8260   32.1570 O.co2 308  ASP308     -0.2456
     76  N         41.4480   20.0670   36.6890 N.3   310  HIS310     -0.1241
     77  CA        41.0520   20.5340   38.0140 C.3   310  HIS310      0.1621
     78  C         41.4320   19.5630   39.1380 C.2   310  HIS310      0.2264
     79  O         41.8460   19.9930   40.2150 O.2   310  HIS310     -0.2867
     80  CB        39.5520   20.8520   38.0190 C.3   310  HIS310      0.0745
     81  CG        39.1350   21.7650   36.9040 C.ar  310  HIS310      0.0817
     82  ND1       37.8230   21.9450   36.5360 N.ar  310  HIS310     -0.2268
     83  CD2       39.8700   22.5550   36.0830 C.ar  310  HIS310      0.1154
     84  CE1       37.7610   22.8110   35.5360 C.ar  310  HIS310      0.1986
     85  NE2       38.9890   23.1950   35.2450 N.ar  310  HIS310     -0.2212
     86  N         39.0600   19.4860   27.7440 N.3   346  HIS346     -0.1226
     87  CA        37.8410   20.1270   27.2560 C.3   346  HIS346      0.1752
     88  C         38.0260   21.4200   26.4590 C.2   346  HIS346      0.2596
     89  O         37.0410   22.0280   26.0540 O.2   346  HIS346     -0.2718
     90  CB        36.9010   20.4140   28.4370 C.3   346  HIS346      0.0759
     91  CG        36.4810   19.1930   29.1960 C.ar  346  HIS346      0.0818
     92  ND1       35.3540   18.4650   28.8790 N.ar  346  HIS346     -0.2268
     93  CD2       37.0340   18.5770   30.2680 C.ar  346  HIS346      0.1154
     94  CE1       35.2280   17.4570   29.7230 C.ar  346  HIS346      0.1986
     95  NE2       36.2360   17.5020   30.5770 N.ar  346  HIS346     -0.2212
     96  N         39.2630   21.8600   26.2370 N.am  347  THR347     -0.1953
     97  CA        39.4750   23.0870   25.4640 C.3   347  THR347      0.1897
     98  C         40.9200   23.2610   25.0260 C.2   347  THR347      0.2313
     99  O         41.8260   22.6890   25.6270 O.2   347  THR347     -0.2863
    100  CB        39.0700   24.3540   26.2610 C.3   347  THR347      0.1794
    101  OG1       39.2230   25.5160   25.4320 O.3   347  THR347     -0.2208
    102  CG2       39.9410   24.5150   27.4910 C.3   347  THR347      0.0378
    103  N         42.6770   29.1960   29.2610 N.3   352  ALA352     -0.1245
    104  CA        41.8900   28.2890   30.0970 C.3   352  ALA352      0.1562
    105  C         42.7380   27.2210   30.7870 C.2   352  ALA352      0.2260
    106  O         42.3000   26.5950   31.7530 O.2   352  ALA352     -0.2867
    107  CB        40.8050   27.6190   29.2590 C.3   352  ALA352      0.0290
    108  N         37.0260   15.5760   23.3620 N.3   424  VAL424     -0.1245
    109  CA        35.5890   15.3550   23.4750 C.3   424  VAL424      0.1561
    110  C         34.7460   15.3980   22.2060 C.2   424  VAL424      0.2260
    111  O         33.5150   15.4040   22.2670 O.2   424  VAL424     -0.2867
    112  CB        35.0170   16.3280   24.5160 C.3   424  VAL424      0.0252
    113  CG1       35.5370   15.9410   25.8990 C.3   424  VAL424      0.0019
    114  CG2       35.4460   17.7610   24.1840 C.3   424  VAL424      0.0019
    115  N         31.3170   13.6240   23.0250 N.3   453  ASN453     -0.1240
    116  CA        30.3330   13.8980   24.0670 C.3   453  ASN453      0.1653
    117  C         28.9310   13.4440   23.6890 C.2   453  ASN453      0.2266
    118  O         28.6590   13.0970   22.5390 O.2   453  ASN453     -0.2867
    119  CB        30.3000   15.3990   24.3820 C.3   453  ASN453      0.1155
    120  CG        31.4640   15.8460   25.2720 C.2   453  ASN453      0.2627
    121  OD1       31.7060   17.0460   25.4420 O.2   453  ASN453     -0.2716
    122  ND2       32.1730   14.8870   25.8460 N.am  453  ASN453     -0.0877
    123  N         34.5910   33.5950   21.9920 N.3   542  TYR542     -0.1227
    124  CA        34.7620   32.5200   21.0390 C.3   542  TYR542      0.1736
    125  C         33.4220   31.9340   20.5820 C.2   542  TYR542      0.2595
    126  O         33.3400   31.3910   19.4640 O.2   542  TYR542     -0.2718
    127  CB        35.7030   31.4170   21.5900 C.3   542  TYR542      0.0548
    128  CG        35.0790   30.2910   22.3890 C.ar  542  TYR542     -0.0200
    129  CD1       34.4400   29.2200   21.7540 C.ar  542  TYR542     -0.0009
    130  CD2       35.1850   30.2660   23.7770 C.ar  542  TYR542     -0.0009
    131  CE1       33.9300   28.1530   22.4850 C.ar  542  TYR542      0.0417
    132  CE2       34.6730   29.2010   24.5260 C.ar  542  TYR542      0.0417
    133  CZ        34.0530   28.1530   23.8740 C.ar  542  TYR542      0.1957
    134  OH        33.5650   27.0990   24.6140 O.3   542  TYR542     -0.2866
    135  N         32.3780   32.0570   21.4080 N.am  543  LYS543     -0.1980
    136  CA        31.0760   31.5150   21.0310 C.3   543  LYS543      0.1596
    137  C         30.3790   32.4630   20.0460 C.2   543  LYS543      0.2287
    138  O         29.3910   32.0970   19.3920 O.2   543  LYS543     -0.2864
    139  CB        30.2200   31.2650   22.2660 C.3   543  LYS543      0.0298
    140  CG        30.7180   30.1160   23.1570 C.3   543  LYS543      0.0038
    141  CD        30.0820   30.1250   24.5340 C.3   543  LYS543      0.0206
    142  CE        30.5820   28.9550   25.3840 C.3   543  LYS543      0.1093
    143  NZ        30.1700   27.6210   24.8070 N.3   543  LYS543     -0.1314
    144  N         35.3460   25.5640   19.8500 N.3   641  GLU641     -0.1231
    145  CA        34.4080   24.8290   20.7060 C.3   641  GLU641      0.1699
    146  C         34.8010   23.3540   20.6410 C.2   641  GLU641      0.2592
    147  O         34.5570   22.6880   19.6400 O.2   641  GLU641     -0.2718
    148  CB        32.9710   25.0170   20.2060 C.3   641  GLU641      0.0402
    149  CG        31.8770   24.5490   21.1760 C.3   641  GLU641      0.1161
    150  CD        31.7520   25.4360   22.4080 C.2   641  GLU641      0.3649
    151  OE1       32.4520   25.1860   23.4130 O.co2 641  GLU641     -0.2457
    152  OE2       30.9540   26.3980   22.3670 O.co2 641  GLU641     -0.2457
    153  N         35.4210   22.8520   21.7060 N.am  642  ALA642     -0.1966
    154  CA        35.8780   21.4640   21.7440 C.3   642  ALA642      0.1728
    155  C         34.8150   20.4880   21.2430 C.2   642  ALA642      0.2617
    156  O         35.0830   19.6300   20.4020 O.2   642  ALA642     -0.2715
    157  CB        36.3050   21.0930   23.1620 C.3   642  ALA642      0.0334
    158  N         33.6070   20.6220   21.7680 N.am  643  SER643     -0.1936
    159  CA        32.5210   19.7450   21.3590 C.3   643  SER643      0.2055
    160  C         31.2010   20.4790   21.3220 C.2   643  SER643      0.2644
    161  O         30.5880   20.6360   20.2600 O.2   643  SER643     -0.2714
    162  CB        32.4030   18.5570   22.3210 C.3   643  SER643      0.2130
    163  OG        31.2000   17.8310   22.1040 O.3   643  SER643     -0.2179
    164  N         30.7930   20.9530   22.4930 N.am  644  GLY644     -0.1939
    165  CA        29.5150   21.6110   22.6330 C.3   644  GLY644      0.2014
    166  C         28.5590   20.4810   22.9880 C.2   644  GLY644      0.2639
    167  O         28.7890   19.3380   22.5850 O.2   644  GLY644     -0.2714
    168  N         27.5220   20.7640   23.7660 N.am  645  THR645     -0.1950
    169  CA        26.5420   19.7410   24.1190 C.3   645  THR645      0.1897
    170  C         25.1440   20.3240   23.9720 C.2   645  THR645      0.2313
    171  O         24.1750   19.5960   23.7310 O.2   645  THR645     -0.2863
    172  CB        26.7390   19.1930   25.5540 C.3   645  THR645      0.1794
    173  OG1       26.7780   20.2760   26.4870 O.3   645  THR645     -0.2208
    174  CG2       28.0380   18.3920   25.6370 C.3   645  THR645      0.0378
@<TRIPOS>BOND
     1   138   137    2
     2   126   125    2
     3   147   146    2
     4   144   145    1
     5   137   136    1
     6   148   145    1
     7   148   149    1
     8   161   160    2
     9   156   155    2
    10   125   124    1
    11   125   135   am
    12   146   145    1
    13   146   153   am
    14   136   135    1
    15   136   139    1
    16   124   127    1
    17   124   123    1
    18   149   150    1
    19   155   154    1
    20   155   158   am
    21   160   159    1
    22   160   164   am
    23   159   158    1
    24   159   162    1
    25   127   128    1
    26   153   154    1
    27   154   157    1
    28   129   128   ar
    29   129   131   ar
    30   163   162    1
    31   110   111    2
    32   110   109    1
    33   139   140    1
    34   152   150   ar
    35   128   130   ar
    36   150   151   ar
    37   131   133   ar
    38   164   165    1
    39   118   117    2
    40   167   166    2
    41   165   166    1
    42   166   168   am
    43   115   116    1
    44   140   141    1
    45   108   109    1
    46   109   112    1
    47   117   116    1
    48   171   170    2
    49   168   169    1
    50   130   132   ar
    51   133   132   ar
    52   133   134    1
    53   170   169    1
    54   116   119    1
    55   169   172    1
    56   114   112    1
    57   119   120    1
    58   112   113    1
    59   141   142    1
    60   143   142    1
    61    98    97    1
    62    98    99    2
    63   120   121    2
    64   120   122   am
    65   101   100    1
    66    97    96    1
    67    97   100    1
    68   172   174    1
    69   172   173    1
    70    89    88    2
    71    96    88   am
    72   100   102    1
    73    88    87    1
    74    87    86    1
    75    87    90    1
    76    56    54   am
    77    54    55    2
    78    54    53    1
    79    31    30    1
    80    90    91    1
    81    53    50    1
    82    92    91   ar
    83    92    94   ar
    84    91    93   ar
    85    32    30    1
    86   107   104    1
    87   103   104    1
    88    48    46   ar
    89    52    51    2
    90    14    13    1
    91    14    15    1
    92    30    29    1
    93    94    95   ar
    94    50    51    1
    95    50    49    1
    96   104   105    1
    97    13    11   am
    98    51    57   am
    99    15    16    2
   100    15    17   am
   101    93    95   ar
   102    29    26    1
   103    44    43    2
   104    46    47   ar
   105    46    45    1
   106   105   106    2
   107    17    18    1
   108    49    43   am
   109    43    42    1
   110    26    25    1
   111    26    27    1
   112    63    65   ar
   113    63    62   ar
   114    65    67   ar
   115    11    10    1
   116    11    12    2
   117    57    58    1
   118    45    42    1
   119    18    21    1
   120    18    19    1
   121    58    61    1
   122    58    59    1
   123    10     9    1
   124    74    73   ar
   125    21    22    1
   126    61    62    1
   127    28    27    2
   128    42    41    1
   129    75    73   ar
   130    62    64   ar
   131    73    72    1
   132    67    66   ar
   133    23    22    1
   134    19    20    2
   135    22    24    1
   136    69    72    1
   137    69    68    1
   138    69    70    1
   139    59    60    2
   140     9     3   am
   141    41    35   am
   142     4     3    2
   143    64    66   ar
   144     3     2    1
   145    70    71    2
   146    35    36    2
   147    35    34    1
   148     5     2    1
   149     5     6    1
   150     2     1    1
   151    85    84   ar
   152    85    83   ar
   153    34    37    1
   154    34    33    1
   155    84    82   ar
   156    37    38    1
   157     6     7    2
   158     6     8   am
   159    83    81   ar
   160    39    38    2
   161    38    40   am
   162    82    81   ar
   163    76    77    1
   164    81    80    1
   165    77    80    1
   166    77    78    1
   167    78    79    2
