@<TRIPOS>MOLECULE
tmp/1ktoA00.pdb
 115 108 0 0 0
SMALL
GASTEIGER

@<TRIPOS>ATOM
      1  N         32.8940   36.5810   65.8930 N.3   112  ASN112     -0.1225
      2  CA        33.0870   37.5700   64.8510 C.3   112  ASN112      0.1785
      3  C         31.9640   38.5980   64.7960 C.2   112  ASN112      0.2597
      4  O         30.9400   38.4720   65.4760 O.2   112  ASN112     -0.2718
      5  CB        33.2150   36.8570   63.5030 C.3   112  ASN112      0.1169
      6  CG        33.7990   37.7420   62.4290 C.2   112  ASN112      0.2627
      7  OD1       34.8870   38.3020   62.5900 O.2   112  ASN112     -0.2716
      8  ND2       33.0810   37.8730   61.3180 N.am  112  ASN112     -0.0877
      9  N         32.1880   39.6270   63.9890 N.am  113  ALA113     -0.1979
     10  CA        31.2230   40.6950   63.7770 C.3   113  ALA113      0.1597
     11  C         31.4560   41.1220   62.3380 C.2   113  ALA113      0.2287
     12  O         32.5530   40.9430   61.8120 O.2   113  ALA113     -0.2864
     13  CB        31.4850   41.8560   64.7260 C.3   113  ALA113      0.0319
     14  N         36.6550   35.2950   72.5170 N.3   130  PHE130     -0.1241
     15  CA        35.9580   36.5790   72.5030 C.3   130  PHE130      0.1605
     16  C         34.7720   36.6050   73.4540 C.2   130  PHE130      0.2264
     17  O         34.1800   35.5670   73.7540 O.2   130  PHE130     -0.2867
     18  CB        35.3800   36.8620   71.1100 C.3   130  PHE130      0.0534
     19  CG        36.3700   37.3700   70.1080 C.ar  130  PHE130     -0.0203
     20  CD1       36.8520   38.6720   70.1840 C.ar  130  PHE130     -0.0042
     21  CD2       36.7780   36.5630   69.0490 C.ar  130  PHE130     -0.0042
     22  CE1       37.7220   39.1640   69.2200 C.ar  130  PHE130     -0.0003
     23  CE2       37.6500   37.0490   68.0770 C.ar  130  PHE130     -0.0003
     24  CZ        38.1210   38.3510   68.1640 C.ar  130  PHE130     -0.0000
     25  N         31.2000   40.8080   70.9690 N.3   133  LEU133     -0.1245
     26  CA        31.9670   41.7710   70.1810 C.3   133  LEU133      0.1561
     27  C         31.5810   43.2440   70.1820 C.2   133  LEU133      0.2260
     28  O         32.4340   44.1020   69.9390 O.2   133  LEU133     -0.2867
     29  CB        32.0980   41.2700   68.7400 C.3   133  LEU133      0.0270
     30  CG        33.1280   40.1390   68.6200 C.3   133  LEU133      0.0019
     31  CD1       32.4930   38.8080   68.9940 C.3   133  LEU133      0.0001
     32  CD2       33.6650   40.0940   67.2110 C.3   133  LEU133      0.0001
     33  N         35.7090   47.9360   67.5520 N.3   139  VAL139     -0.1245
     34  CA        35.0850   46.8980   66.7260 C.3   139  VAL139      0.1561
     35  C         33.8480   47.4990   66.0500 C.2   139  VAL139      0.2260
     36  O         33.6700   47.3910   64.8370 O.2   139  VAL139     -0.2867
     37  CB        34.6210   45.6780   67.5730 C.3   139  VAL139      0.0252
     38  CG1       33.8670   44.6920   66.6950 C.3   139  VAL139      0.0019
     39  CG2       35.8180   44.9920   68.2110 C.3   139  VAL139      0.0019
     40  N         34.8000   49.9760   63.5360 N.3   142  HIS142     -0.1226
     41  CA        35.4180   49.2720   62.4100 C.3   142  HIS142      0.1752
     42  C         34.3030   48.8210   61.4660 C.2   142  HIS142      0.2595
     43  O         34.3650   49.0520   60.2560 O.2   142  HIS142     -0.2718
     44  CB        36.2010   48.0460   62.9180 C.3   142  HIS142      0.0759
     45  CG        36.7530   47.1720   61.8280 C.ar  142  HIS142      0.0818
     46  ND1       38.1000   47.0980   61.5420 N.ar  142  HIS142     -0.2268
     47  CD2       36.1390   46.3320   60.9600 C.ar  142  HIS142      0.1154
     48  CE1       38.2930   46.2510   60.5450 C.ar  142  HIS142      0.1986
     49  NE2       37.1190   45.7720   60.1730 N.ar  142  HIS142     -0.2212
     50  N         33.2710   48.1950   62.0280 N.am  143  GLU143     -0.1979
     51  CA        32.1530   47.7080   61.2250 C.3   143  GLU143      0.1602
     52  C         31.3840   48.8270   60.5260 C.2   143  GLU143      0.2287
     53  O         31.0940   48.7330   59.3310 O.2   143  GLU143     -0.2864
     54  CB        31.1790   46.8890   62.0840 C.3   143  GLU143      0.0415
     55  CG        31.7750   45.6310   62.7280 C.3   143  GLU143      0.1163
     56  CD        32.5740   44.7690   61.7550 C.2   143  GLU143      0.3649
     57  OE1       32.3220   44.8300   60.5330 O.co2 143  GLU143     -0.2457
     58  OE2       33.4540   44.0160   62.2190 O.co2 143  GLU143     -0.2457
     59  N         40.1700   47.1140   54.7750 N.3   166  GLU166     -0.1245
     60  CA        40.3440   46.7010   56.1660 C.3   166  GLU166      0.1567
     61  C         41.0900   47.7310   57.0100 C.2   166  GLU166      0.2260
     62  O         40.6770   48.0390   58.1260 O.2   166  GLU166     -0.2867
     63  CB        41.0860   45.3620   56.2310 C.3   166  GLU166      0.0388
     64  CG        40.1670   44.1660   56.2330 C.3   166  GLU166      0.1160
     65  CD        39.1810   44.2290   57.3800 C.2   166  GLU166      0.3649
     66  OE1       39.6260   44.3050   58.5450 O.co2 166  GLU166     -0.2457
     67  OE2       37.9660   44.2090   57.1170 O.co2 166  GLU166     -0.2457
     68  N         43.8590   46.7670   68.1870 N.3   188  ILE188     -0.1231
     69  CA        42.5090   46.4740   67.7150 C.3   188  ILE188      0.1692
     70  C         41.7830   45.3350   68.4330 C.2   188  ILE188      0.2592
     71  O         42.2470   44.1950   68.4390 O.2   188  ILE188     -0.2718
     72  CB        42.5240   46.1480   66.2030 C.3   188  ILE188      0.0266
     73  CG1       43.1600   47.3020   65.4210 C.3   188  ILE188      0.0019
     74  CG2       41.1030   45.8810   65.7110 C.3   188  ILE188      0.0020
     75  CD1       42.4000   48.6150   65.5160 C.3   188  ILE188      0.0001
     76  N         40.6400   45.6640   69.0330 N.am  189  GLY189     -0.1957
     77  CA        39.8240   44.6700   69.7120 C.3   189  GLY189      0.1869
     78  C         40.2600   44.2050   71.0890 C.2   189  GLY189      0.2309
     79  O         39.7430   43.2090   71.5970 O.2   189  GLY189     -0.2863
     80  N         37.5610   43.0870   73.9170 N.3   192  VAL192     -0.1245
     81  CA        36.7320   41.8860   73.8420 C.3   192  VAL192      0.1561
     82  C         37.4820   40.6100   73.4850 C.2   192  VAL192      0.2260
     83  O         36.8910   39.5330   73.4260 O.2   192  VAL192     -0.2867
     84  CB        35.5910   42.0700   72.8140 C.3   192  VAL192      0.0252
     85  CG1       34.6440   43.1670   73.2790 C.3   192  VAL192      0.0019
     86  CG2       36.1690   42.4110   71.4510 C.3   192  VAL192      0.0019
     87  N         43.7220   41.5770   68.8830 N.3   202  LEU202     -0.1231
     88  CA        43.6510   40.8190   67.6400 C.3   202  LEU202      0.1693
     89  C         44.6970   41.3060   66.6430 C.2   202  LEU202      0.2591
     90  O         45.3590   40.5080   65.9790 O.2   202  LEU202     -0.2718
     91  CB        42.2550   40.9470   67.0290 C.3   202  LEU202      0.0284
     92  CG        41.9820   40.0820   65.8010 C.3   202  LEU202      0.0019
     93  CD1       42.1110   38.6100   66.1740 C.3   202  LEU202      0.0001
     94  CD2       40.5890   40.3800   65.2660 C.3   202  LEU202      0.0001
     95  N         44.8260   42.6240   66.5370 N.am  203  ARG203     -0.1980
     96  CA        45.7890   43.2450   65.6400 C.3   203  ARG203      0.1597
     97  C         46.3880   44.4450   66.3480 C.2   203  ARG203      0.2287
     98  O         45.8120   44.9620   67.3050 O.2   203  ARG203     -0.2864
     99  CB        45.1170   43.7300   64.3450 C.3   203  ARG203      0.0334
    100  CG        44.6980   42.6370   63.3770 C.3   203  ARG203      0.0492
    101  CD        44.2180   43.2420   62.0570 C.3   203  ARG203      0.2205
    102  NE        42.9640   43.9860   62.1820 N.pl3 203  ARG203     -0.0865
    103  CZ        41.7620   43.4240   62.2910 C.cat 203  ARG203      0.5346
    104  NH1       41.6370   42.1020   62.2960 N.pl3 203  ARG203      0.1354
    105  NH2       40.6770   44.1840   62.3710 N.pl3 203  ARG203      0.1354
    106  N         43.0250   40.8690   55.9520 N.3   231  HIS231     -0.1241
    107  CA        43.2320   41.1650   57.3720 C.3   231  HIS231      0.1621
    108  C         44.7070   41.0460   57.7480 C.2   231  HIS231      0.2264
    109  O         45.1010   41.3610   58.8720 O.2   231  HIS231     -0.2867
    110  CB        42.4130   40.2270   58.2690 C.3   231  HIS231      0.0745
    111  CG        40.9340   40.4090   58.1410 C.ar  231  HIS231      0.0817
    112  ND1       40.1720   39.6950   57.2410 N.ar  231  HIS231     -0.2268
    113  CD2       40.0840   41.2600   58.7620 C.ar  231  HIS231      0.1154
    114  CE1       38.9170   40.1010   57.3110 C.ar  231  HIS231      0.1986
    115  NE2       38.8360   41.0510   58.2250 N.ar  231  HIS231     -0.2212
@<TRIPOS>BOND
     1    59    60    1
     2   106   107    1
     3    60    63    1
     4    60    61    1
     5    63    64    1
     6    64    65    1
     7    61    62    2
     8    67    65   ar
     9   112   114   ar
    10   112   111   ar
    11   114   115   ar
    12   107   108    1
    13   107   110    1
    14    65    66   ar
    15   108   109    2
    16   111   110    1
    17   111   113   ar
    18   115   113   ar
    19    53    52    2
    20    49    48   ar
    21    49    47   ar
    22    43    42    2
    23    52    51    1
    24    57    56   ar
    25    48    46   ar
    26    47    45   ar
    27    51    50    1
    28    51    54    1
    29     8     6   am
    30    42    50   am
    31    42    41    1
    32    46    45   ar
    33    56    58   ar
    34    56    55    1
    35    12    11    2
    36    45    44    1
    37   101   102    1
    38   101   100    1
    39    54    55    1
    40   102   103    2
    41   103   104    1
    42   103   105    1
    43    11    10    1
    44    41    44    1
    45    41    40    1
    46     6     7    2
    47     6     5    1
    48   100    99    1
    49     5     2    1
    50    10     9    1
    51    10    13    1
    52     9     3   am
    53    99    96    1
    54     3     2    1
    55     3     4    2
    56    36    35    2
    57     2     1    1
    58    94    92    1
    59    73    75    1
    60    73    72    1
    61    96    97    1
    62    96    95    1
    63    74    72    1
    64    92    93    1
    65    92    91    1
    66    90    89    2
    67    35    34    1
    68    72    69    1
    69    97    98    2
    70    95    89   am
    71    89    88    1
    72    38    37    1
    73    34    33    1
    74    34    37    1
    75    91    88    1
    76    32    30    1
    77    37    39    1
    78    88    87    1
    79    69    68    1
    80    69    70    1
    81    23    24   ar
    82    23    21   ar
    83    24    22   ar
    84    70    71    2
    85    70    76   am
    86    30    29    1
    87    30    31    1
    88    29    26    1
    89    76    77    1
    90    21    19   ar
    91    22    20   ar
    92    77    78    1
    93    28    27    2
    94    19    20   ar
    95    19    18    1
    96    26    27    1
    97    26    25    1
    98    78    79    2
    99    18    15    1
   100    86    84    1
   101    15    14    1
   102    15    16    1
   103    84    85    1
   104    84    81    1
   105    83    82    2
   106    16    17    2
   107    82    81    1
   108    81    80    1
