@<TRIPOS>MOLECULE
tmp/1ktrA00.pdb
 96 93 0 0 0
SMALL
GASTEIGER

@<TRIPOS>ATOM
      1  N         13.6220   64.0340    1.5740 N.3    31  HIS31      -0.1226
      2  CA        13.7410   62.9420    2.5290 C.3    31  HIS31       0.1752
      3  C         14.0450   61.6680    1.7550 C.2    31  HIS31       0.2597
      4  O         13.7610   61.5790    0.5620 O.2    31  HIS31      -0.2718
      5  CB        12.4360   62.8160    3.3120 C.3    31  HIS31       0.0759
      6  CG        12.4650   61.7840    4.3930 C.ar   31  HIS31       0.0818
      7  ND1       12.3360   60.4360    4.1400 N.ar   31  HIS31      -0.2268
      8  CD2       12.5520   61.9090    5.7400 C.ar   31  HIS31       0.1154
      9  CE1       12.3360   59.7750    5.2840 C.ar   31  HIS31       0.1986
     10  NE2       12.4650   60.6460    6.2700 N.ar   31  HIS31      -0.2212
     11  N         14.6270   60.6820    2.4210 N.am   32  SER32      -0.1938
     12  CA        14.9640   59.4440    1.7330 C.3    32  SER32       0.2055
     13  C         13.7550   58.6580    1.2100 C.2    32  SER32       0.2643
     14  O         13.9080   57.8300    0.3100 O.2    32  SER32      -0.2714
     15  CB        15.8260   58.5520    2.6360 C.3    32  SER32       0.2130
     16  OG        15.1770   58.2720    3.8620 O.3    32  SER32      -0.2179
     17  N         12.5600   58.9130    1.7450 N.am   33  ASN33      -0.1971
     18  CA        11.3860   58.1830    1.2760 C.3    33  ASN33       0.1688
     19  C         10.7980   58.7740    0.0060 C.2    33  ASN33       0.2292
     20  O          9.8060   58.2640   -0.5210 O.2    33  ASN33      -0.2864
     21  CB        10.2890   58.0980    2.3570 C.3    33  ASN33       0.1181
     22  CG         9.6380   59.4420    2.6680 C.2    33  ASN33       0.2629
     23  OD1        9.6380   60.3690    1.8450 O.2    33  ASN33      -0.2716
     24  ND2        9.0570   59.5440    3.8610 N.am   33  ASN33      -0.0877
     25  N          9.3270   67.2770    2.8800 N.3    37  TYR37      -0.1241
     26  CA         8.4950   67.8140    3.9430 C.3    37  TYR37       0.1605
     27  C          8.5920   69.3130    4.1760 C.2    37  TYR37       0.2264
     28  O          8.9310   69.7560    5.2710 O.2    37  TYR37      -0.2867
     29  CB         8.7970   67.0460    5.2300 C.3    37  TYR37       0.0534
     30  CG         8.3790   65.5960    5.1220 C.ar   37  TYR37      -0.0201
     31  CD1        7.0510   65.2200    5.3330 C.ar   37  TYR37      -0.0009
     32  CD2        9.2910   64.6070    4.7390 C.ar   37  TYR37      -0.0009
     33  CE1        6.6360   63.8990    5.1620 C.ar   37  TYR37       0.0417
     34  CE2        8.8860   63.2810    4.5610 C.ar   37  TYR37       0.0417
     35  CZ         7.5560   62.9350    4.7730 C.ar   37  TYR37       0.1957
     36  OH         7.1290   61.6440    4.5700 O.3    37  TYR37      -0.2866
     37  N          6.7350   72.8100    4.5820 N.3    39  GLU39      -0.1245
     38  CA         5.4210   73.3180    4.9570 C.3    39  GLU39       0.1567
     39  C          5.3480   74.8470    5.0780 C.2    39  GLU39       0.2260
     40  O          6.3410   75.5080    5.3900 O.2    39  GLU39      -0.2867
     41  CB         5.0060   72.6790    6.2830 C.3    39  GLU39       0.0388
     42  CG         4.8970   71.1590    6.2310 C.3    39  GLU39       0.1160
     43  CD         4.8730   70.5130    7.6120 C.2    39  GLU39       0.3649
     44  OE1        4.4980   71.1890    8.5920 O.co2  39  GLU39      -0.2457
     45  OE2        5.2190   69.3180    7.7200 O.co2  39  GLU39      -0.2457
     46  N          3.1880   78.0180    6.8990 N.3    41  TYR41      -0.1241
     47  CA         2.2740   78.3880    7.9690 C.3    41  TYR41       0.1605
     48  C          1.9460   79.8770    7.9690 C.2    41  TYR41       0.2264
     49  O          2.7670   80.7110    7.5810 O.2    41  TYR41      -0.2867
     50  CB         2.8930   78.0240    9.3170 C.3    41  TYR41       0.0534
     51  CG         2.9420   76.5440    9.5940 C.ar   41  TYR41      -0.0201
     52  CD1        1.8310   75.8730   10.1110 C.ar   41  TYR41      -0.0009
     53  CD2        4.0990   75.8090    9.3490 C.ar   41  TYR41      -0.0009
     54  CE1        1.8760   74.5110   10.3780 C.ar   41  TYR41       0.0417
     55  CE2        4.1490   74.4430    9.6120 C.ar   41  TYR41       0.0417
     56  CZ         3.0360   73.8060   10.1250 C.ar   41  TYR41       0.1957
     57  OH         3.0860   72.4630   10.3790 O.3    41  TYR41      -0.2866
     58  N          8.7170   75.8160    6.8330 N.3    94  PHE94      -0.1241
     59  CA         9.1990   74.8410    7.7850 C.3    94  PHE94       0.1605
     60  C          9.6180   73.5670    7.0880 C.2    94  PHE94       0.2264
     61  O          8.9860   73.1530    6.1140 O.2    94  PHE94      -0.2867
     62  CB         8.0660   74.5840    8.7890 C.3    94  PHE94       0.0534
     63  CG         8.2240   73.3420    9.6100 C.ar   94  PHE94      -0.0203
     64  CD1        7.7850   72.1130    9.1270 C.ar   94  PHE94      -0.0042
     65  CD2        8.7470   73.4100   10.8990 C.ar   94  PHE94      -0.0042
     66  CE1        7.8560   70.9700    9.9220 C.ar   94  PHE94      -0.0003
     67  CE2        8.8230   72.2730   11.7020 C.ar   94  PHE94      -0.0003
     68  CZ         8.3750   71.0530   11.2130 C.ar   94  PHE94      -0.0000
     69  N         10.3910   69.5410    7.7290 N.3    96  GLY96      -0.1210
     70  CA        10.2100   68.4510    8.6620 C.3    96  GLY96       0.1956
     71  C         10.7980   67.1840    8.0830 C.2    96  GLY96       0.2612
     72  O         10.3230   66.0810    8.3660 O.2    96  GLY96      -0.2717
     73  N         11.8330   67.3530    7.2620 N.am   97  SER97      -0.1952
     74  CA        12.5180   66.2280    6.6360 C.3    97  SER97       0.1924
     75  C         13.6620   65.7010    7.4960 C.2    97  SER97       0.2314
     76  O         13.8730   64.4930    7.5770 O.2    97  SER97      -0.2863
     77  CB        13.0720   66.6320    5.2650 C.3    97  SER97       0.2116
     78  OG        12.0330   66.8070    4.3200 O.3    97  SER97      -0.2180
     79  N         15.6490   65.9210   11.3740 N.3    99  VAL99      -0.1245
     80  CA        15.6890   66.3400   12.7710 C.3    99  VAL99       0.1561
     81  C         17.0090   67.0700   13.0340 C.2    99  VAL99       0.2260
     82  O         18.0770   66.5960   12.6520 O.2    99  VAL99      -0.2867
     83  CB        15.5850   65.1180   13.7200 C.3    99  VAL99       0.0252
     84  CG1       15.8120   65.5460   15.1600 C.3    99  VAL99       0.0019
     85  CG2       14.2250   64.4620   13.5740 C.3    99  VAL99       0.0019
     86  N         13.6820   69.6190   13.1140 N.3   101  PHE101     -0.1241
     87  CA        12.8990   70.3570   12.1330 C.3   101  PHE101      0.1605
     88  C         13.1070   71.8490   12.4080 C.2   101  PHE101      0.2264
     89  O         13.2640   72.2580   13.5600 O.2   101  PHE101     -0.2867
     90  CB        11.4230   69.9620   12.2440 C.3   101  PHE101      0.0534
     91  CG        11.1920   68.4680   12.2080 C.ar  101  PHE101     -0.0203
     92  CD1       11.9520   67.6480   11.3670 C.ar  101  PHE101     -0.0042
     93  CD2       10.2130   67.8770   13.0080 C.ar  101  PHE101     -0.0042
     94  CE1       11.7390   66.2610   11.3270 C.ar  101  PHE101     -0.0003
     95  CE2        9.9930   66.4930   12.9740 C.ar  101  PHE101     -0.0003
     96  CZ        10.7570   65.6840   12.1340 C.ar  101  PHE101     -0.0000
@<TRIPOS>BOND
     1    20    19    2
     2    19    18    1
     3    14    13    2
     4     4     3    2
     5    13    12    1
     6    13    17   am
     7    18    17    1
     8    18    21    1
     9     1     2    1
    10    12    11    1
    11    12    15    1
    12     3    11   am
    13     3     2    1
    14    23    22    2
    15    21    22    1
    16     2     5    1
    17    15    16    1
    18    22    24   am
    19    25    26    1
    20     5     6    1
    21    26    27    1
    22    26    29    1
    23     7     6   ar
    24     7     9   ar
    25    27    28    2
    26    78    77    1
    27     6     8   ar
    28    34    32   ar
    29    34    35   ar
    30    36    35    1
    31    37    38    1
    32    32    30   ar
    33    35    33   ar
    34    38    39    1
    35    38    41    1
    36    39    40    2
    37    30    29    1
    38    30    31   ar
    39    33    31   ar
    40    77    74    1
    41     9    10   ar
    42     8    10   ar
    43    61    60    2
    44    42    41    1
    45    42    43    1
    46    74    73    1
    47    74    75    1
    48    58    59    1
    49    46    47    1
    50    60    59    1
    51    73    71   am
    52    75    76    2
    53    49    48    2
    54    43    45   ar
    55    43    44   ar
    56    69    70    1
    57    59    62    1
    58    47    48    1
    59    47    50    1
    60    71    72    2
    61    71    70    1
    62    62    63    1
    63    64    63   ar
    64    64    66   ar
    65    50    51    1
    66    53    51   ar
    67    53    55   ar
    68    51    52   ar
    69    63    65   ar
    70    55    56   ar
    71    66    68   ar
    72    52    54   ar
    73    56    54   ar
    74    56    57    1
    75    65    67   ar
    76    68    67   ar
    77    94    92   ar
    78    94    96   ar
    79    92    91   ar
    80    79    80    1
    81    87    90    1
    82    87    88    1
    83    87    86    1
    84    96    95   ar
    85    91    90    1
    86    91    93   ar
    87    88    89    2
    88    82    81    2
    89    80    81    1
    90    80    83    1
    91    95    93   ar
    92    85    83    1
    93    83    84    1
