@<TRIPOS>MOLECULE
tmp/1ktsB01.pdb
 235 238 0 0 0
SMALL
GASTEIGER

@<TRIPOS>ATOM
      1  N         22.7220   -6.8200   18.2660 N.3    43  HIS43      -0.1241
      2  CA        22.5230   -8.1960   17.7960 C.3    43  HIS43       0.1621
      3  C         21.8230   -8.2910   16.4230 C.2    43  HIS43       0.2264
      4  O         21.6940   -9.3860   15.8740 O.2    43  HIS43      -0.2867
      5  CB        21.7420   -9.0200   18.8360 C.3    43  HIS43       0.0745
      6  CG        20.2650   -8.7560   18.8360 C.ar   43  HIS43       0.0817
      7  ND1       19.6090   -8.1500   19.8910 N.ar   43  HIS43      -0.2268
      8  CD2       19.3130   -9.0380   17.9180 C.ar   43  HIS43       0.1154
      9  CE1       18.3210   -8.0720   19.6180 C.ar   43  HIS43       0.1986
     10  NE2       18.1110   -8.6020   18.4290 N.ar   43  HIS43      -0.2212
     11  N         25.8300  -10.9720   15.6350 N.3    47  TYR47      -0.1241
     12  CA        25.5760  -12.0260   16.5900 C.3    47  TYR47       0.1605
     13  C         26.0710  -13.3240   15.9730 C.2    47  TYR47       0.2264
     14  O         25.2950  -14.0730   15.3560 O.2    47  TYR47      -0.2867
     15  CB        24.1010  -12.1670   16.9140 C.3    47  TYR47       0.0534
     16  CG        23.8800  -12.9670   18.1770 C.ar   47  TYR47      -0.0201
     17  CD1       24.6220  -12.6930   19.3290 C.ar   47  TYR47      -0.0009
     18  CD2       22.9370  -13.9830   18.2320 C.ar   47  TYR47      -0.0009
     19  CE1       24.4280  -13.4120   20.5030 C.ar   47  TYR47       0.0417
     20  CE2       22.7330  -14.7090   19.4060 C.ar   47  TYR47       0.0417
     21  CZ        23.4840  -14.4160   20.5370 C.ar   47  TYR47       0.1957
     22  OH        23.2960  -15.1250   21.7050 O.3    47  TYR47      -0.2866
     23  N         24.1810  -16.9340   15.7760 N.3    50  TRP50      -0.1241
     24  CA        23.1640  -17.0710   14.7400 C.3    50  TRP50       0.1605
     25  C         23.7470  -16.7270   13.3800 C.2    50  TRP50       0.2264
     26  O         23.0130  -16.5650   12.4010 O.2    50  TRP50      -0.2867
     27  CB        21.9800  -16.1670   15.0270 C.3    50  TRP50       0.0550
     28  CG        21.2970  -16.4630   16.3040 C.ar   50  TRP50       0.0003
     29  CD1       21.6230  -17.4320   17.2060 C.ar   50  TRP50       0.0946
     30  CD2       20.1480  -15.7980   16.8250 C.ar   50  TRP50       0.0152
     31  NE1       20.7430  -17.4140   18.2600 N.ar   50  TRP50      -0.2442
     32  CE2       19.8250  -16.4210   18.0530 C.ar   50  TRP50       0.0810
     33  CE3       19.3540  -14.7400   16.3730 C.ar   50  TRP50       0.0012
     34  CZ2       18.7370  -16.0210   18.8390 C.ar   50  TRP50       0.0191
     35  CZ3       18.2650  -14.3370   17.1570 C.ar   50  TRP50       0.0001
     36  CH2       17.9700  -14.9820   18.3770 C.ar   50  TRP50       0.0015
     37  N         28.3410   -9.9460   23.1400 N.3    92  TRP92      -0.1227
     38  CA        27.5050  -10.9180   22.4440 C.3    92  TRP92       0.1737
     39  C         27.8380  -12.3160   22.9260 C.2    92  TRP92       0.2595
     40  O         26.9760  -13.2090   22.9640 O.2    92  TRP92      -0.2718
     41  CB        27.6610  -10.8180   20.9130 C.3    92  TRP92       0.0564
     42  CG        29.0640  -10.8360   20.3740 C.ar   92  TRP92       0.0003
     43  CD1       29.8340   -9.7490   20.0460 C.ar   92  TRP92       0.0946
     44  CD2       29.8680  -11.9970   20.0890 C.ar   92  TRP92       0.0152
     45  NE1       31.0660  -10.1610   19.5850 N.ar   92  TRP92      -0.2442
     46  CE2       31.1160  -11.5330   19.6040 C.ar   92  TRP92       0.0810
     47  CE3       29.6560  -13.3810   20.1990 C.ar   92  TRP92       0.0012
     48  CZ2       32.1460  -12.4080   19.2360 C.ar   92  TRP92       0.0191
     49  CZ3       30.6760  -14.2440   19.8330 C.ar   92  TRP92       0.0001
     50  CH2       31.9060  -13.7560   19.3580 C.ar   92  TRP92       0.0015
     51  N         29.0840  -12.4780   23.3510 N.am   93  ARG93      -0.1966
     52  CA        29.5710  -13.7530   23.8290 C.3    93  ARG93       0.1729
     53  C         28.8480  -14.2570   25.0520 C.2    93  ARG93       0.2616
     54  O         28.3730  -15.3870   25.0600 O.2    93  ARG93      -0.2715
     55  CB        31.0610  -13.6780   24.1150 C.3    93  ARG93       0.0348
     56  CG        31.9020  -13.5130   22.8890 C.3    93  ARG93       0.0492
     57  CD        33.3510  -13.6220   23.2370 C.3    93  ARG93       0.2205
     58  NE        34.1660  -13.9510   22.0720 N.pl3  93  ARG93      -0.0865
     59  CZ        34.4190  -15.1890   21.6560 C.cat  93  ARG93       0.5346
     60  NH1       33.9210  -16.2420   22.3000 N.pl3  93  ARG93       0.1354
     61  NH2       35.2110  -15.3690   20.6120 N.pl3  93  ARG93       0.1354
     62  N         28.7020  -13.4090   26.0620 N.am   94  GLU94      -0.1963
     63  CA        28.0530  -13.8450   27.2850 C.3    94  GLU94       0.1733
     64  C         26.5710  -13.5610   27.5030 C.2    94  GLU94       0.2616
     65  O         25.7560  -14.4820   27.4900 O.2    94  GLU94      -0.2715
     66  CB        28.8430  -13.3680   28.5050 C.3    94  GLU94       0.0429
     67  CG        28.2530  -13.8760   29.8030 C.3    94  GLU94       0.1163
     68  CD        28.8740  -13.2610   31.0490 C.2    94  GLU94       0.3649
     69  OE1       30.0120  -12.7290   30.9870 O.co2  94  GLU94      -0.2457
     70  OE2       28.2000  -13.3160   32.1040 O.co2  94  GLU94      -0.2457
     71  N         26.2120  -12.2980   27.7080 N.am   95  ASN95      -0.1958
     72  CA        24.8220  -11.9620   28.0100 C.3    95  ASN95       0.1819
     73  C         24.1700  -10.8140   27.2360 C.2    95  ASN95       0.2621
     74  O         23.1370  -10.3010   27.6530 O.2    95  ASN95      -0.2715
     75  CB        24.7090  -11.6870   29.5130 C.3    95  ASN95       0.1195
     76  CG        25.6710  -10.6070   29.9790 C.2    95  ASN95       0.2630
     77  OD1       26.6390  -10.2850   29.2950 O.2    95  ASN95      -0.2716
     78  ND2       25.4070  -10.0390   31.1370 N.am   95  ASN95      -0.0877
     79  N         24.7320  -10.4460   26.0900 N.am   96  LEU96      -0.1977
     80  CA        24.1920   -9.3430   25.2900 C.3    96  LEU96       0.1596
     81  C         24.1730   -8.0230   26.0770 C.2    96  LEU96       0.2287
     82  O         23.2520   -7.2120   25.9610 O.2    96  LEU96      -0.2864
     83  CB        22.8070   -9.6880   24.7110 C.3    96  LEU96       0.0297
     84  CG        22.7770  -10.6730   23.5350 C.3    96  LEU96       0.0022
     85  CD1       21.3520  -10.9640   23.1560 C.3    96  LEU96       0.0001
     86  CD2       23.5220  -10.1240   22.3550 C.3    96  LEU96       0.0001
     87  N         15.8160  -16.1310   35.0710 N.3   170  THR170     -0.1203
     88  CA        16.7690  -16.6820   34.1330 C.3   170  THR170      0.1994
     89  C         18.0700  -17.0540   34.8200 C.2   170  THR170      0.2618
     90  O         18.3120  -16.6770   35.9640 O.2   170  THR170     -0.2717
     91  CB        17.0520  -15.6530   33.0110 C.3   170  THR170      0.1784
     92  OG1       18.1180  -16.1160   32.1760 O.3   170  THR170     -0.2211
     93  CG2       17.4390  -14.3100   33.5970 C.3   170  THR170      0.0376
     94  N         18.8980  -17.8030   34.1010 N.am  171  ARG171     -0.1965
     95  CA        20.1960  -18.2370   34.5930 C.3   171  ARG171      0.1729
     96  C         21.2630  -17.2730   34.0770 C.2   171  ARG171      0.2616
     97  O         22.4440  -17.3940   34.4250 O.2   171  ARG171     -0.2715
     98  CB        20.4870  -19.6630   34.1050 C.3   171  ARG171      0.0348
     99  CG        19.4950  -20.6970   34.6270 C.3   171  ARG171      0.0492
    100  CD        19.5760  -22.0460   33.9050 C.3   171  ARG171      0.2205
    101  NE        20.7820  -22.8090   34.2320 N.pl3 171  ARG171     -0.0865
    102  CZ        20.8750  -24.1380   34.1590 C.cat 171  ARG171      0.5346
    103  NH1       19.8380  -24.8690   33.7750 N.pl3 171  ARG171      0.1354
    104  NH2       22.0090  -24.7430   34.4770 N.pl3 171  ARG171      0.1354
    105  N         20.8390  -16.3060   33.2570 N.am  172  ILE172     -0.1977
    106  CA        21.7520  -15.3170   32.6740 C.3   172  ILE172      0.1596
    107  C         22.0930  -14.2260   33.6780 C.2   172  ILE172      0.2287
    108  O         21.2400  -13.7880   34.4450 O.2   172  ILE172     -0.2864
    109  CB        21.1390  -14.6320   31.4030 C.3   172  ILE172      0.0276
    110  CG1       20.8950  -15.6570   30.2910 C.3   172  ILE172      0.0022
    111  CG2       22.0800  -13.5600   30.8670 C.3   172  ILE172      0.0022
    112  CD1       22.1750  -16.2710   29.6980 C.3   172  ILE172      0.0001
    113  N          4.1960   -9.7530   25.0150 N.3   192  ASP192     -0.1225
    114  CA         5.6450   -9.7050   24.9580 C.3   192  ASP192      0.1805
    115  C          6.0960   -9.5060   23.5330 C.2   192  ASP192      0.2598
    116  O          5.2990   -9.6290   22.6030 O.2   192  ASP192     -0.2718
    117  CB         6.1900  -11.0390   25.4950 C.3   192  ASP192      0.1424
    118  CG         7.7060  -11.1410   25.4600 C.2   192  ASP192      0.3668
    119  OD1        8.4080  -10.1480   25.7440 O.co2 192  ASP192     -0.2456
    120  OD2        8.2000  -12.2470   25.1640 O.co2 192  ASP192     -0.2456
    121  N          7.3660   -9.1400   23.3730 N.am  193  ALA193     -0.1966
    122  CA         7.9660   -8.9830   22.0600 C.3   193  ALA193      0.1728
    123  C          8.2310  -10.4110   21.5630 C.2   193  ALA193      0.2616
    124  O          8.0150  -11.3730   22.2930 O.2   193  ALA193     -0.2715
    125  CB         9.2670   -8.2020   22.1630 C.3   193  ALA193      0.0334
    126  N          8.7040  -10.5550   20.3330 N.am  194  CYS194     -0.1954
    127  CA         8.9660  -11.8750   19.7970 C.3   194  CYS194      0.1843
    128  C          9.8730  -11.7300   18.6000 C.2   194  CYS194      0.2625
    129  O         10.2490  -10.6060   18.2550 O.2   194  CYS194     -0.2714
    130  CB         7.6540  -12.5540   19.3970 C.3   194  CYS194      0.0997
    131  SG         7.8040  -14.3590   19.1870 S.3   194  CYS194     -0.0797
    132  N         10.2520  -12.8520   17.9880 N.am  195  GLU195     -0.1977
    133  CA        11.1240  -12.8260   16.8130 C.3   195  GLU195      0.1602
    134  C         10.5730  -11.8320   15.8000 C.2   195  GLU195      0.2287
    135  O          9.3630  -11.7600   15.5790 O.2   195  GLU195     -0.2864
    136  CB        11.2580  -14.2240   16.1820 C.3   195  GLU195      0.0415
    137  CG        12.1510  -14.2640   14.9250 C.3   195  GLU195      0.1163
    138  CD        12.5160  -15.6770   14.4720 C.2   195  GLU195      0.3649
    139  OE1       13.6130  -15.8520   13.8920 O.co2 195  GLU195     -0.2457
    140  OE2       11.7150  -16.6180   14.6930 O.co2 195  GLU195     -0.2457
    141  N         12.8590   -7.6970   17.8440 N.3   198  SER198     -0.1217
    142  CA        14.1030   -7.2360   18.4480 C.3   198  SER198      0.1889
    143  C         14.7510   -6.0500   17.7550 C.2   198  SER198      0.2288
    144  O         14.5650   -5.8490   16.5630 O.2   198  SER198     -0.2866
    145  CB        15.0780   -8.4020   18.6360 C.3   198  SER198      0.2089
    146  OG        15.5250   -8.9200   17.3940 O.3   198  SER198     -0.2183
    147  N         14.3670   -3.6940   22.5220 N.3   218  VAL218     -0.1231
    148  CA        14.0550   -5.1170   22.6460 C.3   218  VAL218      0.1692
    149  C         15.3670   -5.8670   22.4030 C.2   218  VAL218      0.2593
    150  O         15.8610   -5.9170   21.2690 O.2   218  VAL218     -0.2718
    151  CB        13.0000   -5.5400   21.5970 C.3   218  VAL218      0.0266
    152  CG1       12.6060   -7.0070   21.7800 C.3   218  VAL218      0.0020
    153  CG2       11.7730   -4.6460   21.6940 C.3   218  VAL218      0.0020
    154  N         15.9310   -6.4320   23.4730 N.am  219  SER219     -0.1938
    155  CA        17.2200   -7.1220   23.4090 C.3   219  SER219      0.2055
    156  C         17.1940   -8.6280   23.2100 C.2   219  SER219      0.2643
    157  O         17.7640   -9.1370   22.2430 O.2   219  SER219     -0.2714
    158  CB        18.0610   -6.7970   24.6560 C.3   219  SER219      0.2130
    159  OG        19.3550   -7.3900   24.5860 O.3   219  SER219     -0.2179
    160  N         16.5990   -9.3360   24.1640 N.am  220  TRP220     -0.1959
    161  CA        16.5390  -10.7880   24.1210 C.3   220  TRP220      0.1771
    162  C         15.4040  -11.3460   24.9600 C.2   220  TRP220      0.2620
    163  O         14.8070  -10.6340   25.7750 O.2   220  TRP220     -0.2715
    164  CB        17.8700  -11.3950   24.5760 C.3   220  TRP220      0.0590
    165  CG        18.2800  -11.0870   25.9820 C.ar  220  TRP220      0.0006
    166  CD1       19.0720  -10.0480   26.3990 C.ar  220  TRP220      0.0946
    167  CD2       18.0180  -11.8830   27.1530 C.ar  220  TRP220      0.0152
    168  NE1       19.3290  -10.1590   27.7410 N.ar  220  TRP220     -0.2442
    169  CE2       18.7000  -11.2740   28.2310 C.ar  220  TRP220      0.0810
    170  CE3       17.2830  -13.0560   27.3920 C.ar  220  TRP220      0.0012
    171  CZ2       18.6710  -11.8000   29.5290 C.ar  220  TRP220      0.0191
    172  CZ3       17.2520  -13.5780   28.6810 C.ar  220  TRP220      0.0001
    173  CH2       17.9450  -12.9480   29.7330 C.ar  220  TRP220      0.0015
    174  N         15.0930  -12.6160   24.7300 N.am  221  GLY221     -0.1940
    175  CA        14.0310  -13.2680   25.4630 C.3   221  GLY221      0.2014
    176  C         14.0950  -14.7580   25.2220 C.2   221  GLY221      0.2639
    177  O         14.6690  -15.2080   24.2320 O.2   221  GLY221     -0.2714
    178  N         13.5320  -15.5160   26.1500 N.am  222  GLU222     -0.1963
    179  CA        13.4970  -16.9700   26.0740 C.3   222  GLU222      0.1733
    180  C         12.0920  -17.3170   25.5810 C.2   222  GLU222      0.2617
    181  O         11.1270  -17.3320   26.3550 O.2   222  GLU222     -0.2715
    182  CB        13.7270  -17.5620   27.4680 C.3   222  GLU222      0.0429
    183  CG        14.8420  -16.8750   28.2680 C.3   222  GLU222      0.1163
    184  CD        14.6450  -16.9690   29.7840 C.2   222  GLU222      0.3649
    185  OE1       13.9810  -16.0710   30.3540 O.co2 222  GLU222     -0.2457
    186  OE2       15.1610  -17.9310   30.4060 O.co2 222  GLU222     -0.2457
    187  N         11.9730  -17.5680   24.2860 N.am  223  GLY223     -0.1940
    188  CA        10.6720  -17.8700   23.7280 C.3   223  GLY223      0.2014
    189  C          9.9390  -16.5590   23.5060 C.2   223  GLY223      0.2639
    190  O         10.5620  -15.5470   23.1700 O.2   223  GLY223     -0.2714
    191  N          8.6280  -16.5620   23.7160 N.am  224  CYS224     -0.1967
    192  CA         7.8170  -15.3700   23.5360 C.3   224  CYS224      0.1712
    193  C          6.5470  -15.5470   24.3520 C.2   224  CYS224      0.2296
    194  O          5.7680  -16.4820   24.1080 O.2   224  CYS224     -0.2864
    195  CB         7.4230  -15.1800   22.0690 C.3   224  CYS224      0.0983
    196  SG         8.7650  -14.9510   20.8740 S.3   224  CYS224     -0.0798
    197  N         10.3650  -13.1810   31.0550 N.3   230  TYR230     -0.1227
    198  CA        10.2340  -11.7510   30.7960 C.3   230  TYR230      0.1736
    199  C         11.0380  -11.2940   29.5840 C.2   230  TYR230      0.2596
    200  O         11.9670  -11.9860   29.1450 O.2   230  TYR230     -0.2718
    201  CB        10.6590  -10.9670   32.0430 C.3   230  TYR230      0.0548
    202  CG         9.7730  -11.2690   33.2270 C.ar  230  TYR230     -0.0200
    203  CD1       10.2140  -12.0760   34.2750 C.ar  230  TYR230     -0.0009
    204  CD2        8.4530  -10.8110   33.2570 C.ar  230  TYR230     -0.0009
    205  CE1        9.3510  -12.4230   35.3190 C.ar  230  TYR230      0.0417
    206  CE2        7.5890  -11.1540   34.2930 C.ar  230  TYR230      0.0417
    207  CZ         8.0420  -11.9580   35.3150 C.ar  230  TYR230      0.1957
    208  OH         7.1650  -12.2910   36.3160 O.3   230  TYR230     -0.2866
    209  N         10.6600  -10.1440   29.0300 N.am  231  GLY231     -0.1942
    210  CA        11.3870   -9.6100   27.8960 C.3   231  GLY231      0.2014
    211  C         12.5150   -8.7730   28.4650 C.2   231  GLY231      0.2639
    212  O         12.3210   -8.1050   29.4860 O.2   231  GLY231     -0.2714
    213  N         13.6970   -8.8350   27.8650 N.am  232  PHE232     -0.1959
    214  CA        14.8210   -8.0480   28.3540 C.3   232  PHE232      0.1771
    215  C         15.1310   -6.9510   27.3640 C.2   232  PHE232      0.2619
    216  O         15.1050   -7.1670   26.1410 O.2   232  PHE232     -0.2715
    217  CB        16.0530   -8.9170   28.6540 C.3   232  PHE232      0.0574
    218  CG        16.0110   -9.5700   30.0250 C.ar  232  PHE232     -0.0200
    219  CD1       15.1680  -10.6580   30.2790 C.ar  232  PHE232     -0.0042
    220  CD2       16.7730   -9.0630   31.0710 C.ar  232  PHE232     -0.0042
    221  CE1       15.0850  -11.2260   31.5550 C.ar  232  PHE232     -0.0003
    222  CE2       16.6940   -9.6220   32.3440 C.ar  232  PHE232     -0.0003
    223  CZ        15.8480  -10.7040   32.5820 C.ar  232  PHE232     -0.0000
    224  N         15.4170   -5.7690   27.9040 N.am  233  TYR233     -0.1974
    225  CA        15.6770   -4.5850   27.1080 C.3   233  TYR233      0.1639
    226  C         16.9600   -3.8850   27.4870 C.2   233  TYR233      0.2290
    227  O         17.3510   -3.8890   28.6430 O.2   233  TYR233     -0.2864
    228  CB        14.5210   -3.5930   27.3020 C.3   233  TYR233      0.0560
    229  CG        13.1520   -4.1630   26.9980 C.ar  233  TYR233     -0.0198
    230  CD1       12.4370   -4.8650   27.9590 C.ar  233  TYR233     -0.0009
    231  CD2       12.5840   -4.0200   25.7310 C.ar  233  TYR233     -0.0009
    232  CE1       11.1800   -5.4190   27.6630 C.ar  233  TYR233      0.0417
    233  CE2       11.3450   -4.5650   25.4240 C.ar  233  TYR233      0.0417
    234  CZ        10.6510   -5.2640   26.3870 C.ar  233  TYR233      0.1957
    235  OH         9.4460   -5.8350   26.0470 O.3   233  TYR233     -0.2866
@<TRIPOS>BOND
     1    26    25    2
     2    25    24    1
     3   139   138   ar
     4   138   140   ar
     5   138   137    1
     6    24    27    1
     7    24    23    1
     8   137   136    1
     9    27    28    1
    10    14    13    2
    11   135   134    2
    12    11    12    1
    13   134   133    1
    14     4     3    2
    15    13    12    1
    16   136   133    1
    17    28    30   ar
    18    28    29   ar
    19    33    30   ar
    20    33    35   ar
    21     3     2    1
    22   144   143    2
    23    12    15    1
    24   133   132    1
    25    30    32   ar
    26    15    16    1
    27    35    36   ar
    28    29    31   ar
    29   146   145    1
    30   143   142    1
    31     2     1    1
    32     2     5    1
    33   141   142    1
    34     8    10   ar
    35     8     6   ar
    36   132   128   am
    37    32    31   ar
    38    32    34   ar
    39    16    18   ar
    40    16    17   ar
    41    18    20   ar
    42   129   128    2
    43    36    34   ar
    44    10     9   ar
    45   142   145    1
    46   128   127    1
    47     5     6    1
    48     6     7   ar
    49   131   130    1
    50   131   196    1
    51    48    50   ar
    52    48    46   ar
    53    17    19   ar
    54    50    49   ar
    55   130   127    1
    56    20    21   ar
    57    45    46   ar
    58    45    43   ar
    59    46    44   ar
    60     9     7   ar
    61   127   126    1
    62    49    47   ar
    63    43    42   ar
    64    44    47   ar
    65    44    42   ar
    66   126   123   am
    67    42    41    1
    68    19    21   ar
    69    21    22    1
    70    61    59    1
    71   196   195    1
    72    41    38    1
    73   150   149    2
    74   123   122    1
    75   123   124    2
    76   151   153    1
    77   151   152    1
    78   151   148    1
    79    59    58    2
    80    59    60    1
    81   122   125    1
    82   122   121    1
    83   195   192    1
    84    58    57    1
    85   157   156    2
    86    86    84    1
    87   149   148    1
    88   149   154   am
    89    38    39    1
    90    38    37    1
    91   147   148    1
    92   116   115    2
    93    56    57    1
    94    56    55    1
    95    39    40    2
    96    39    51   am
    97    85    84    1
    98   190   189    2
    99   156   155    1
   100   156   160   am
   101    51    52    1
   102   121   115   am
   103   155   154    1
   104   155   158    1
   105   189   191   am
   106   189   188    1
   107   115   114    1
   108    84    83    1
   109   192   191    1
   110   192   193    1
   111   188   187    1
   112    52    55    1
   113    52    53    1
   114   194   193    2
   115   161   160    1
   116   161   164    1
   117   161   162    1
   118   177   176    2
   119   187   180   am
   120   164   165    1
   121   159   158    1
   122    83    80    1
   123   174   162   am
   124   174   175    1
   125   114   113    1
   126   114   117    1
   127   162   163    2
   128    53    54    2
   129    53    62   am
   130   120   118   ar
   131   176   175    1
   132   176   178   am
   133    80    81    1
   134    80    79    1
   135   233   231   ar
   136   233   234   ar
   137   118   117    1
   138   118   119   ar
   139   180   179    1
   140   180   181    2
   141   231   229   ar
   142    82    81    2
   143   165   166   ar
   144   165   167   ar
   145   235   234    1
   146    62    63    1
   147   179   178    1
   148   179   182    1
   149    79    73   am
   150   216   215    2
   151   234   232   ar
   152   166   168   ar
   153   229   228    1
   154   229   230   ar
   155   225   228    1
   156   225   226    1
   157   225   224    1
   158   167   170   ar
   159   167   169   ar
   160    73    74    2
   161    73    72    1
   162    63    64    1
   163    63    66    1
   164   215   224   am
   165   215   214    1
   166   170   172   ar
   167   182   183    1
   168   226   227    2
   169    65    64    2
   170    64    71   am
   171   232   230   ar
   172    71    72    1
   173   168   169   ar
   174   213   214    1
   175   213   211   am
   176   210   211    1
   177   210   209    1
   178    72    75    1
   179   169   171   ar
   180   183   184    1
   181   214   217    1
   182   211   212    2
   183    66    67    1
   184   217   218    1
   185   172   173   ar
   186   209   199   am
   187   200   199    2
   188    77    76    2
   189    75    76    1
   190   171   173   ar
   191   199   198    1
   192   112   110    1
   193   184   185   ar
   194   184   186   ar
   195    67    68    1
   196    76    78   am
   197   218   219   ar
   198   218   220   ar
   199   219   221   ar
   200   110   109    1
   201   198   197    1
   202   198   201    1
   203   111   109    1
   204    69    68   ar
   205    68    70   ar
   206   220   222   ar
   207   109   106    1
   208   221   223   ar
   209   201   202    1
   210    92    91    1
   211   222   223   ar
   212   106   105    1
   213   106   107    1
   214    91    93    1
   215    91    88    1
   216   202   204   ar
   217   202   203   ar
   218   105    96   am
   219   204   206   ar
   220   107   108    2
   221   103   102    1
   222   100   101    1
   223   100    99    1
   224    96    97    2
   225    96    95    1
   226    94    95    1
   227    94    89   am
   228    98    95    1
   229    98    99    1
   230    88    89    1
   231    88    87    1
   232   102   101    2
   233   102   104    1
   234   203   205   ar
   235   206   207   ar
   236    89    90    2
   237   207   205   ar
   238   207   208    1
