@<TRIPOS>MOLECULE
tmp/1kttB01.pdb
 205 207 0 0 0
SMALL
GASTEIGER

@<TRIPOS>ATOM
      1  N         22.7430   -6.7380   18.3480 N.3    43  HIS43      -0.1241
      2  CA        22.6350   -8.0880   17.8110 C.3    43  HIS43       0.1621
      3  C         21.8950   -8.1770   16.4800 C.2    43  HIS43       0.2264
      4  O         22.0020   -9.1790   15.7700 O.2    43  HIS43      -0.2867
      5  CB        21.9820   -9.0310   18.8250 C.3    43  HIS43       0.0745
      6  CG        20.5020   -8.8800   18.9270 C.ar   43  HIS43       0.0817
      7  ND1       19.8990   -8.0590   19.8550 N.ar   43  HIS43      -0.2268
      8  CD2       19.5010   -9.4320   18.2030 C.ar   43  HIS43       0.1154
      9  CE1       18.5880   -8.1130   19.6990 C.ar   43  HIS43       0.1986
     10  NE2       18.3220   -8.9390   18.7030 N.ar   43  HIS43      -0.2212
     11  N         25.9750  -10.7630   15.5270 N.3    47  TYR47      -0.1241
     12  CA        25.6960  -11.8640   16.4310 C.3    47  TYR47       0.1605
     13  C         26.2080  -13.1860   15.8440 C.2    47  TYR47       0.2264
     14  O         25.4510  -13.9410   15.2210 O.2    47  TYR47      -0.2867
     15  CB        24.2020  -11.9640   16.7180 C.3    47  TYR47       0.0534
     16  CG        23.9080  -12.8530   17.8960 C.ar   47  TYR47      -0.0201
     17  CD1       24.4330  -12.5590   19.1530 C.ar   47  TYR47      -0.0009
     18  CD2       23.1320  -14.0060   17.7530 C.ar   47  TYR47      -0.0009
     19  CE1       24.1970  -13.3930   20.2500 C.ar   47  TYR47       0.0417
     20  CE2       22.8860  -14.8490   18.8400 C.ar   47  TYR47       0.0417
     21  CZ        23.4240  -14.5360   20.0840 C.ar   47  TYR47       0.1957
     22  OH        23.2000  -15.3670   21.1540 O.3    47  TYR47      -0.2866
     23  N         24.5370  -16.8440   15.5860 N.3    50  TRP50      -0.1241
     24  CA        23.5850  -17.1150   14.5170 C.3    50  TRP50       0.1605
     25  C         24.1260  -16.7220   13.1520 C.2    50  TRP50       0.2264
     26  O         23.3620  -16.5130   12.2120 O.2    50  TRP50      -0.2867
     27  CB        22.2740  -16.3780   14.7690 C.3    50  TRP50       0.0550
     28  CG        21.5860  -16.7920   16.0270 C.ar   50  TRP50       0.0003
     29  CD1       21.8710  -17.8810   16.8050 C.ar   50  TRP50       0.0946
     30  CD2       20.4720  -16.1400   16.6410 C.ar   50  TRP50       0.0152
     31  NE1       20.9990  -17.9430   17.8690 N.ar   50  TRP50      -0.2442
     32  CE2       20.1310  -16.8850   17.7900 C.ar   50  TRP50       0.0810
     33  CE3       19.7250  -14.9970   16.3310 C.ar   50  TRP50       0.0012
     34  CZ2       19.0750  -16.5210   18.6310 C.ar   50  TRP50       0.0191
     35  CZ3       18.6720  -14.6370   17.1700 C.ar   50  TRP50       0.0001
     36  CH2       18.3600  -15.3980   18.3050 C.ar   50  TRP50       0.0015
     37  N         28.2910   -9.9120   23.0290 N.3    92  TRP92      -0.1227
     38  CA        27.4860  -10.8830   22.3100 C.3    92  TRP92       0.1737
     39  C         27.9190  -12.2910   22.6920 C.2    92  TRP92       0.2595
     40  O         27.2280  -13.2680   22.3970 O.2    92  TRP92      -0.2718
     41  CB        27.6480  -10.6940   20.8070 C.3    92  TRP92       0.0564
     42  CG        29.0680  -10.7400   20.3400 C.ar   92  TRP92       0.0003
     43  CD1       29.8740   -9.6710   20.0530 C.ar   92  TRP92       0.0946
     44  CD2       29.8420  -11.9130   20.0620 C.ar   92  TRP92       0.0152
     45  NE1       31.1010  -10.1080   19.6040 N.ar   92  TRP92      -0.2442
     46  CE2       31.1090  -11.4790   19.6010 C.ar   92  TRP92       0.0810
     47  CE3       29.5890  -13.2890   20.1550 C.ar   92  TRP92       0.0012
     48  CZ2       32.1250  -12.3750   19.2310 C.ar   92  TRP92       0.0191
     49  CZ3       30.6070  -14.1890   19.7840 C.ar   92  TRP92       0.0001
     50  CH2       31.8560  -13.7220   19.3280 C.ar   92  TRP92       0.0015
     51  N         29.0720  -12.3960   23.3440 N.am   93  ARG93      -0.1966
     52  CA        29.5720  -13.6990   23.7590 C.3    93  ARG93       0.1729
     53  C         28.7910  -14.2760   24.9310 C.2    93  ARG93       0.2616
     54  O         28.4180  -15.4480   24.9200 O.2    93  ARG93      -0.2715
     55  CB        31.0490  -13.6070   24.1340 C.3    93  ARG93       0.0348
     56  CG        31.9730  -13.4930   22.9460 C.3    93  ARG93       0.0492
     57  CD        33.3750  -13.1650   23.3850 C.3    93  ARG93       0.2205
     58  NE        34.3580  -13.6660   22.4330 N.pl3  93  ARG93      -0.0865
     59  CZ        34.5190  -14.9530   22.1360 C.cat  93  ARG93       0.5346
     60  NH1       33.7570  -15.8810   22.7140 N.pl3  93  ARG93       0.1354
     61  NH2       35.4520  -15.3160   21.2640 N.pl3  93  ARG93       0.1354
     62  N         28.5240  -13.4540   25.9370 N.am   94  GLU94      -0.1963
     63  CA        27.8140  -13.9540   27.1000 C.3    94  GLU94       0.1733
     64  C         26.3340  -13.6480   27.2530 C.2    94  GLU94       0.2616
     65  O         25.5060  -14.5460   27.1290 O.2    94  GLU94      -0.2715
     66  CB        28.5100  -13.5150   28.3880 C.3    94  GLU94       0.0429
     67  CG        27.6390  -13.7630   29.6220 C.3    94  GLU94       0.1163
     68  CD        28.2650  -13.2680   30.9060 C.2    94  GLU94       0.3649
     69  OE1       28.8010  -12.1350   30.9140 O.co2  94  GLU94      -0.2457
     70  OE2       28.2080  -14.0110   31.9100 O.co2  94  GLU94      -0.2457
     71  N         26.0060  -12.3870   27.5300 N.am   95  ASN95      -0.1958
     72  CA        24.6200  -12.0040   27.7910 C.3    95  ASN95       0.1819
     73  C         24.0620  -10.8120   27.0240 C.2    95  ASN95       0.2621
     74  O         23.0890  -10.1930   27.4660 O.2    95  ASN95      -0.2715
     75  CB        24.4700  -11.7350   29.2860 C.3    95  ASN95       0.1195
     76  CG        25.4920  -10.7360   29.7930 C.2    95  ASN95       0.2630
     77  OD1       26.3220  -10.2350   29.0270 O.2    95  ASN95      -0.2716
     78  ND2       25.4400  -10.4370   31.0870 N.am   95  ASN95      -0.0877
     79  N         24.6700  -10.4890   25.8860 N.am   96  LEU96      -0.1977
     80  CA        24.2110   -9.3690   25.0790 C.3    96  LEU96       0.1596
     81  C         24.2710   -8.0490   25.8440 C.2    96  LEU96       0.2287
     82  O         23.5390   -7.1050   25.5350 O.2    96  LEU96      -0.2864
     83  CB        22.7810   -9.6330   24.5870 C.3    96  LEU96       0.0297
     84  CG        22.6780  -10.4890   23.3230 C.3    96  LEU96       0.0022
     85  CD1       21.2520  -10.9560   23.1100 C.3    96  LEU96       0.0001
     86  CD2       23.1540   -9.6730   22.1350 C.3    96  LEU96       0.0001
     87  N         20.5550  -16.6080   32.8560 N.3   172  ILE172     -0.1245
     88  CA        21.4330  -15.6260   32.2160 C.3   172  ILE172      0.1561
     89  C         21.8030  -14.5270   33.2060 C.2   172  ILE172      0.2260
     90  O         20.9700  -14.0930   34.0080 O.2   172  ILE172     -0.2867
     91  CB        20.7440  -14.9540   30.9810 C.3   172  ILE172      0.0252
     92  CG1       20.4840  -15.9890   29.8790 C.3   172  ILE172      0.0019
     93  CG2       21.6170  -13.8260   30.4420 C.3   172  ILE172      0.0019
     94  CD1       21.7550  -16.6180   29.2840 C.3   172  ILE172      0.0001
     95  N          4.0670   -9.8300   24.9130 N.3   192  ASP192     -0.1225
     96  CA         5.5170   -9.7550   24.9160 C.3   192  ASP192      0.1805
     97  C          5.9970   -9.5030   23.4990 C.2   192  ASP192      0.2598
     98  O          5.2200   -9.5990   22.5430 O.2   192  ASP192     -0.2718
     99  CB         6.0730  -11.0920   25.4670 C.3   192  ASP192      0.1424
    100  CG         7.6070  -11.1710   25.4740 C.2   192  ASP192      0.3668
    101  OD1        8.2880  -10.1240   25.5150 O.co2 192  ASP192     -0.2456
    102  OD2        8.1310  -12.3090   25.4670 O.co2 192  ASP192     -0.2456
    103  N          7.2700   -9.1410   23.3800 N.am  193  ALA193     -0.1966
    104  CA         7.8820   -8.9250   22.0840 C.3   193  ALA193      0.1728
    105  C          8.1700  -10.3410   21.5930 C.2   193  ALA193      0.2616
    106  O          7.9410  -11.3040   22.3220 O.2   193  ALA193     -0.2715
    107  CB         9.1840   -8.1450   22.2390 C.3   193  ALA193      0.0334
    108  N          8.6620  -10.4730   20.3660 N.am  194  CYS194     -0.1954
    109  CA         8.9850  -11.7890   19.8270 C.3   194  CYS194      0.1843
    110  C          9.8930  -11.6200   18.6190 C.2   194  CYS194      0.2625
    111  O         10.1740  -10.4920   18.2070 O.2   194  CYS194     -0.2714
    112  CB         7.7030  -12.5420   19.4380 C.3   194  CYS194      0.0997
    113  SG         7.9140  -14.3540   19.2670 S.3   194  CYS194     -0.0797
    114  N         10.3560  -12.7430   18.0670 N.am  195  GLU195     -0.1977
    115  CA        11.2400  -12.7380   16.9040 C.3   195  GLU195      0.1602
    116  C         10.7240  -11.7520   15.8570 C.2   195  GLU195      0.2287
    117  O          9.5630  -11.8220   15.4480 O.2   195  GLU195     -0.2864
    118  CB        11.3240  -14.1540   16.3100 C.3   195  GLU195      0.0415
    119  CG        12.2920  -14.2980   15.1540 C.3   195  GLU195      0.1163
    120  CD        12.6700  -15.7460   14.8830 C.2   195  GLU195      0.3649
    121  OE1       13.3790  -15.9980   13.8860 O.co2 195  GLU195     -0.2457
    122  OE2       12.2660  -16.6330   15.6690 O.co2 195  GLU195     -0.2457
    123  N         12.7970   -7.5380   17.7680 N.3   198  SER198     -0.1217
    124  CA        14.1490   -7.2640   18.2370 C.3   198  SER198      0.1889
    125  C         14.7180   -5.9860   17.6030 C.2   198  SER198      0.2288
    126  O         14.5460   -5.7480   16.4120 O.2   198  SER198     -0.2866
    127  CB        15.0170   -8.4940   17.9070 C.3   198  SER198      0.2089
    128  OG        16.3890   -8.1780   17.8510 O.3   198  SER198     -0.2183
    129  N         14.3990   -3.6330   22.4520 N.3   218  VAL218     -0.1231
    130  CA        14.1040   -5.0620   22.5470 C.3   218  VAL218      0.1692
    131  C         15.4410   -5.7700   22.3470 C.2   218  VAL218      0.2593
    132  O         16.0370   -5.6920   21.2650 O.2   218  VAL218     -0.2718
    133  CB        13.1050   -5.5080   21.4430 C.3   218  VAL218      0.0266
    134  CG1       12.7520   -6.9870   21.6110 C.3   218  VAL218      0.0020
    135  CG2       11.8480   -4.6490   21.5030 C.3   218  VAL218      0.0020
    136  N         15.9090   -6.4510   23.3930 N.am  219  SER219     -0.1938
    137  CA        17.2050   -7.1230   23.3530 C.3   219  SER219      0.2055
    138  C         17.1430   -8.6320   23.2530 C.2   219  SER219      0.2643
    139  O         17.6640   -9.2080   22.2970 O.2   219  SER219     -0.2714
    140  CB        18.0310   -6.7410   24.5820 C.3   219  SER219      0.2130
    141  OG        19.3360   -7.2710   24.4780 O.3   219  SER219     -0.2179
    142  N         16.5350   -9.2770   24.2460 N.am  220  TRP220     -0.1959
    143  CA        16.4190  -10.7260   24.2120 C.3   220  TRP220      0.1771
    144  C         15.3080  -11.2810   25.0900 C.2   220  TRP220      0.2620
    145  O         14.7780  -10.6040   25.9750 O.2   220  TRP220     -0.2715
    146  CB        17.7390  -11.3860   24.6170 C.3   220  TRP220      0.0590
    147  CG        18.2110  -11.0320   26.0160 C.ar  220  TRP220      0.0006
    148  CD1       18.9360   -9.9320   26.3870 C.ar  220  TRP220      0.0946
    149  CD2       18.0070  -11.7990   27.2110 C.ar  220  TRP220      0.0152
    150  NE1       19.2010   -9.9720   27.7370 N.ar  220  TRP220     -0.2442
    151  CE2       18.6410  -11.1080   28.2660 C.ar  220  TRP220      0.0810
    152  CE3       17.3490  -13.0030   27.4930 C.ar  220  TRP220      0.0012
    153  CZ2       18.6390  -11.5840   29.5840 C.ar  220  TRP220      0.0191
    154  CZ3       17.3470  -13.4770   28.8070 C.ar  220  TRP220      0.0001
    155  CH2       17.9880  -12.7680   29.8330 C.ar  220  TRP220      0.0015
    156  N         14.9720  -12.5370   24.8340 N.am  221  GLY221     -0.1940
    157  CA        13.9410  -13.2010   25.6030 C.3   221  GLY221      0.2014
    158  C         13.9700  -14.6860   25.3180 C.2   221  GLY221      0.2639
    159  O         14.3660  -15.1110   24.2300 O.2   221  GLY221     -0.2714
    160  N         13.5530  -15.4720   26.3000 N.am  222  GLU222     -0.1963
    161  CA        13.5130  -16.9180   26.1740 C.3   222  GLU222      0.1733
    162  C         12.1150  -17.2970   25.7000 C.2   222  GLU222      0.2617
    163  O         11.1650  -17.3390   26.4810 O.2   222  GLU222     -0.2715
    164  CB        13.8460  -17.5430   27.5320 C.3   222  GLU222      0.0429
    165  CG        15.2170  -17.0980   28.0480 C.3   222  GLU222      0.1163
    166  CD        15.4380  -17.3700   29.5360 C.2   222  GLU222      0.3649
    167  OE1       14.7440  -16.7590   30.3780 O.co2 222  GLU222     -0.2457
    168  OE2       16.3160  -18.1970   29.8620 O.co2 222  GLU222     -0.2457
    169  N         11.9980  -17.5710   24.4060 N.am  223  GLY223     -0.1940
    170  CA        10.7030  -17.8980   23.8400 C.3   223  GLY223      0.2014
    171  C          9.9280  -16.5920   23.7030 C.2   223  GLY223      0.2639
    172  O         10.5250  -15.5150   23.6160 O.2   223  GLY223     -0.2714
    173  N          8.6030  -16.6780   23.6870 N.am  224  CYS224     -0.1967
    174  CA         7.7710  -15.4910   23.5780 C.3   224  CYS224      0.1712
    175  C          6.5240  -15.6640   24.4250 C.2   224  CYS224      0.2296
    176  O          5.8150  -16.6680   24.3170 O.2   224  CYS224     -0.2864
    177  CB         7.3780  -15.2430   22.1200 C.3   224  CYS224      0.0983
    178  SG         8.7870  -14.8860   21.0240 S.3   224  CYS224     -0.0798
    179  N         10.5140  -10.2570   28.8560 N.3   231  GLY231     -0.1210
    180  CA        11.3350   -9.7570   27.7740 C.3   231  GLY231      0.1956
    181  C         12.3840   -8.8680   28.4040 C.2   231  GLY231      0.2612
    182  O         12.1170   -8.2070   29.4100 O.2   231  GLY231     -0.2717
    183  N         13.5850   -8.8660   27.8460 N.am  232  PHE232     -0.1962
    184  CA        14.6430   -8.0250   28.3850 C.3   232  PHE232      0.1771
    185  C         14.9570   -6.9350   27.3800 C.2   232  PHE232      0.2619
    186  O         14.8800   -7.1560   26.1680 O.2   232  PHE232     -0.2715
    187  CB        15.8850   -8.8640   28.7190 C.3   232  PHE232      0.0574
    188  CG        15.7670   -9.6040   30.0170 C.ar  232  PHE232     -0.0200
    189  CD1       14.8490  -10.6410   30.1620 C.ar  232  PHE232     -0.0042
    190  CD2       16.5290   -9.2270   31.1150 C.ar  232  PHE232     -0.0042
    191  CE1       14.6850  -11.2920   31.3890 C.ar  232  PHE232     -0.0003
    192  CE2       16.3780   -9.8670   32.3460 C.ar  232  PHE232     -0.0003
    193  CZ        15.4510  -10.9020   32.4820 C.ar  232  PHE232     -0.0000
    194  N         15.2900   -5.7510   27.8890 N.am  233  TYR233     -0.1974
    195  CA        15.5710   -4.6020   27.0430 C.3   233  TYR233      0.1639
    196  C         16.8490   -3.8690   27.4160 C.2   233  TYR233      0.2290
    197  O         17.2180   -3.8040   28.5880 O.2   233  TYR233     -0.2864
    198  CB        14.4170   -3.5850   27.1270 C.3   233  TYR233      0.0560
    199  CG        13.0550   -4.1540   26.8360 C.ar  233  TYR233     -0.0198
    200  CD1       12.4150   -5.0020   27.7490 C.ar  233  TYR233     -0.0009
    201  CD2       12.4220   -3.8920   25.6220 C.ar  233  TYR233     -0.0009
    202  CE1       11.1870   -5.5780   27.4520 C.ar  233  TYR233      0.0417
    203  CE2       11.1910   -4.4670   25.3150 C.ar  233  TYR233      0.0417
    204  CZ        10.5850   -5.3100   26.2240 C.ar  233  TYR233      0.1957
    205  OH         9.4110   -5.9310   25.8730 O.3   233  TYR233     -0.2866
@<TRIPOS>BOND
     1    26    25    2
     2    25    24    1
     3   121   120   ar
     4    24    27    1
     5    24    23    1
     6    27    28    1
     7   120   119    1
     8   120   122   ar
     9   119   118    1
    10    14    13    2
    11   117   116    2
    12    11    12    1
    13     4     3    2
    14    13    12    1
    15   116   115    1
    16    28    30   ar
    17    28    29   ar
    18   118   115    1
    19    33    30   ar
    20    33    35   ar
    21   126   125    2
    22    12    15    1
    23     3     2    1
    24    30    32   ar
    25    15    16    1
    26    29    31   ar
    27   115   114    1
    28    35    36   ar
    29   125   124    1
    30    18    16   ar
    31    18    20   ar
    32   123   124    1
    33    32    31   ar
    34    32    34   ar
    35     2     1    1
    36     2     5    1
    37   128   127    1
    38    16    17   ar
    39   127   124    1
    40   114   110   am
    41     8    10   ar
    42     8     6   ar
    43   111   110    2
    44    36    34   ar
    45   110   109    1
    46    10     9   ar
    47     5     6    1
    48    20    21   ar
    49     6     7   ar
    50    17    19   ar
    51    48    50   ar
    52    48    46   ar
    53   113   112    1
    54   113   178    1
    55    50    49   ar
    56   112   109    1
    57    46    45   ar
    58    46    44   ar
    59    45    43   ar
    60     9     7   ar
    61    49    47   ar
    62   109   108    1
    63    43    42   ar
    64    44    47   ar
    65    44    42   ar
    66    21    19   ar
    67    21    22    1
    68    42    41    1
    69   108   105   am
    70    41    38    1
    71   178   177    1
    72    61    59    1
    73   132   131    2
    74   133   135    1
    75   133   134    1
    76   133   130    1
    77   105   104    1
    78   105   106    2
    79   104   107    1
    80   104   103    1
    81   177   174    1
    82    86    84    1
    83    59    58    2
    84    59    60    1
    85   139   138    2
    86    38    39    1
    87    38    37    1
    88   131   130    1
    89   131   136   am
    90    40    39    2
    91    58    57    1
    92   129   130    1
    93    98    97    2
    94    39    51   am
    95    56    57    1
    96    56    55    1
    97    85    84    1
    98   138   137    1
    99   138   142   am
   100    84    83    1
   101    51    52    1
   102   137   136    1
   103   137   140    1
   104   103    97   am
   105    97    96    1
   106   174   173    1
   107   174   175    1
   108   172   171    2
   109   173   171   am
   110   171   170    1
   111    52    55    1
   112    52    53    1
   113   170   169    1
   114   143   142    1
   115   143   146    1
   116   143   144    1
   117   159   158    2
   118   176   175    2
   119   169   162   am
   120   141   140    1
   121    83    80    1
   122   146   147    1
   123   156   144   am
   124   156   157    1
   125    95    96    1
   126    96    99    1
   127    54    53    2
   128    53    62   am
   129    80    81    1
   130    80    79    1
   131   144   145    2
   132   203   201   ar
   133   203   204   ar
   134   158   157    1
   135   158   160   am
   136    99   100    1
   137   102   100   ar
   138   100   101   ar
   139    82    81    2
   140   201   199   ar
   141   162   161    1
   142   162   163    2
   143   205   204    1
   144    79    73   am
   145    62    63    1
   146   147   148   ar
   147   147   149   ar
   148   186   185    2
   149   161   160    1
   150   161   164    1
   151   204   202   ar
   152   148   150   ar
   153   199   198    1
   154   199   200   ar
   155    73    74    2
   156    73    72    1
   157   195   198    1
   158   195   196    1
   159   195   194    1
   160    63    64    1
   161    63    66    1
   162    65    64    2
   163   149   152   ar
   164   149   151   ar
   165    64    71   am
   166   185   194   am
   167   185   184    1
   168   196   197    2
   169   202   200   ar
   170   152   154   ar
   171    71    72    1
   172   164   165    1
   173   150   151   ar
   174   180   181    1
   175   180   179    1
   176    72    75    1
   177   183   184    1
   178   183   181   am
   179   165   166    1
   180   151   153   ar
   181   184   187    1
   182    66    67    1
   183   181   182    2
   184   187   188    1
   185   154   155   ar
   186    77    76    2
   187    94    92    1
   188    75    76    1
   189   166   168   ar
   190   166   167   ar
   191   153   155   ar
   192    67    68    1
   193    76    78   am
   194    92    91    1
   195   188   189   ar
   196   188   190   ar
   197   189   191   ar
   198    93    91    1
   199    68    69   ar
   200    68    70   ar
   201    91    88    1
   202   190   192   ar
   203   191   193   ar
   204    88    87    1
   205    88    89    1
   206   192   193   ar
   207    89    90    2
