@<TRIPOS>MOLECULE
tmp/1ktwA01.pdb
 244 235 0 0 0
SMALL
GASTEIGER

@<TRIPOS>ATOM
      1  N          9.8080    9.2540    6.8440 N.3   189  PHE189     -0.1227
      2  CA        11.2720    9.3210    6.6920 C.3   189  PHE189      0.1736
      3  C         12.1470    9.3900    7.9530 C.2   189  PHE189      0.2596
      4  O         13.2340    8.8120    7.9770 O.2   189  PHE189     -0.2718
      5  CB        11.6790   10.4900    5.7710 C.3   189  PHE189      0.0547
      6  CG        11.5040   11.8450    6.3920 C.ar  189  PHE189     -0.0202
      7  CD1       10.2460   12.4510    6.4380 C.ar  189  PHE189     -0.0042
      8  CD2       12.5900   12.5060    6.9630 C.ar  189  PHE189     -0.0042
      9  CE1       10.0790   13.6970    7.0490 C.ar  189  PHE189     -0.0003
     10  CE2       12.4370   13.7500    7.5760 C.ar  189  PHE189     -0.0003
     11  CZ        11.1770   14.3510    7.6230 C.ar  189  PHE189     -0.0000
     12  N         11.6950   10.0930    8.9870 N.am  190  GLY190     -0.1957
     13  CA        12.5040   10.2270   10.1890 C.3   190  GLY190      0.1869
     14  C         12.5120    9.0430   11.1440 C.2   190  GLY190      0.2309
     15  O         13.2110    9.0670   12.1680 O.2   190  GLY190     -0.2863
     16  N         17.9180    1.3320   12.6070 N.3   216  ARG216     -0.1245
     17  CA        18.4600    2.6560   12.9530 C.3   216  ARG216      0.1563
     18  C         19.1670    2.6450   14.3120 C.2   216  ARG216      0.2260
     19  O         18.5200    2.7310   15.3400 O.2   216  ARG216     -0.2867
     20  CB        17.2970    3.6830   12.9490 C.3   216  ARG216      0.0307
     21  CG        17.6490    5.1500   13.2760 C.3   216  ARG216      0.0489
     22  CD        16.3630    6.0060   13.4950 C.3   216  ARG216      0.2205
     23  NE        15.6210    6.2730   12.2530 N.pl3 216  ARG216     -0.0865
     24  CZ        15.8190    7.3300   11.4600 C.cat 216  ARG216      0.5346
     25  NH1       16.7400    8.2460   11.7590 N.pl3 216  ARG216      0.1354
     26  NH2       15.0900    7.4700   10.3640 N.pl3 216  ARG216      0.1354
     27  N         20.7410    4.7640   16.2050 N.3   218  GLU218     -0.1245
     28  CA        20.9410    6.1740   16.5190 C.3   218  GLU218      0.1567
     29  C         20.6240    6.3410   18.0050 C.2   218  GLU218      0.2260
     30  O         19.4640    6.4840   18.4070 O.2   218  GLU218     -0.2867
     31  CB        20.0060    7.0310   15.6280 C.3   218  GLU218      0.0388
     32  CG        20.2540    8.5360   15.7050 C.3   218  GLU218      0.1160
     33  CD        19.4160    9.3330   14.6960 C.2   218  GLU218      0.3649
     34  OE1       18.3930    8.8060   14.2060 O.co2 218  GLU218     -0.2457
     35  OE2       19.7740   10.4900   14.4020 O.co2 218  GLU218     -0.2457
     36  N         20.3620    8.3990   20.8710 N.3   220  ASP220     -0.1239
     37  CA        20.2380    9.7700   21.3690 C.3   220  ASP220      0.1674
     38  C         19.2100   10.1180   22.4550 C.2   220  ASP220      0.2266
     39  O         18.8520   11.2920   22.6130 O.2   220  ASP220     -0.2867
     40  CB        20.0240   10.7080   20.1740 C.3   220  ASP220      0.1410
     41  CG        18.6970   10.4620   19.4570 C.2   220  ASP220      0.3668
     42  OD1       17.9510    9.5430   19.8600 O.co2 220  ASP220     -0.2456
     43  OD2       18.3850   11.1930   18.4930 O.co2 220  ASP220     -0.2456
     44  N         15.5930    5.8920    3.2280 N.3   246  LEU246     -0.1245
     45  CA        16.9010    6.5130    3.4490 C.3   246  LEU246      0.1561
     46  C         18.0530    5.4950    3.3690 C.2   246  LEU246      0.2260
     47  O         19.0360    5.7060    2.6300 O.2   246  LEU246     -0.2867
     48  CB        16.9520    7.1960    4.8370 C.3   246  LEU246      0.0270
     49  CG        16.1160    8.4480    5.1590 C.3   246  LEU246      0.0019
     50  CD1       16.2210    8.7640    6.6720 C.3   246  LEU246      0.0001
     51  CD2       16.6170    9.6340    4.3240 C.3   246  LEU246      0.0001
     52  N         21.8680    1.9630    9.5320 N.3   250  MET250     -0.1245
     53  CA        22.4560    3.2660    9.8630 C.3   250  MET250      0.1570
     54  C         23.0780    3.3700   11.2610 C.2   250  MET250      0.2261
     55  O         22.4920    2.9110   12.2440 O.2   250  MET250     -0.2867
     56  CB        21.3830    4.3610    9.7040 C.3   250  MET250      0.0387
     57  CG        21.8300    5.7700   10.0740 C.3   250  MET250      0.0595
     58  SD        21.4400    6.2300   11.7960 S.3   250  MET250     -0.1393
     59  CE        21.3060    8.0190   11.6060 C.3   250  MET250      0.0692
     60  N         25.6330   10.1230   18.1110 N.3   254  HIS254     -0.1241
     61  CA        25.3960   11.3800   18.8230 C.3   254  HIS254      0.1621
     62  C         26.4830   11.5470   19.9110 C.2   254  HIS254      0.2264
     63  O         27.6690   11.5790   19.5760 O.2   254  HIS254     -0.2867
     64  CB        23.9630   11.4210   19.4030 C.3   254  HIS254      0.0745
     65  CG        22.8930   11.5840   18.3570 C.ar  254  HIS254      0.0817
     66  ND1       22.0570   12.6800   18.3110 N.ar  254  HIS254     -0.2268
     67  CD2       22.5460   10.8030   17.3040 C.ar  254  HIS254      0.1154
     68  CE1       21.2390   12.5680   17.2740 C.ar  254  HIS254      0.1986
     69  NE2       21.5140   11.4380   16.6460 N.ar  254  HIS254     -0.2212
     70  N         24.5680    3.6560    5.8800 N.3   276  ARG276     -0.1245
     71  CA        24.8810    5.0530    6.2110 C.3   276  ARG276      0.1563
     72  C         25.5230    5.1670    7.6070 C.2   276  ARG276      0.2260
     73  O         25.0590    4.5350    8.5600 O.2   276  ARG276     -0.2867
     74  CB        23.6040    5.9160    6.1720 C.3   276  ARG276      0.0307
     75  CG        23.7470    7.3200    6.7980 C.3   276  ARG276      0.0489
     76  CD        22.4390    8.1560    6.6540 C.3   276  ARG276      0.2205
     77  NE        22.3660    9.2500    7.6300 N.pl3 276  ARG276     -0.0865
     78  CZ        21.2920   10.0140    7.8460 C.cat 276  ARG276      0.5346
     79  NH1       20.1670    9.8330    7.1460 N.pl3 276  ARG276      0.1354
     80  NH2       21.3300   10.9370    8.7990 N.pl3 276  ARG276      0.1354
     81  N         26.9890    8.2180   10.3510 N.3   278  ASP278     -0.1239
     82  CA        27.1050    9.6440   10.6910 C.3   278  ASP278      0.1674
     83  C         28.2080    9.8600   11.7410 C.2   278  ASP278      0.2266
     84  O         28.5330    8.9590   12.5310 O.2   278  ASP278     -0.2867
     85  CB        25.7930   10.1930   11.3000 C.3   278  ASP278      0.1410
     86  CG        24.6380   10.3160   10.2940 C.2   278  ASP278      0.3668
     87  OD1       24.8010    9.9950    9.1050 O.co2 278  ASP278     -0.2456
     88  OD2       23.5420   10.7490   10.7130 O.co2 278  ASP278     -0.2456
     89  N         28.5190   13.6700   17.5110 N.3   281  PHE281     -0.1241
     90  CA        28.5110   15.1190   17.6820 C.3   281  PHE281      0.1605
     91  C         27.8270   15.5550   18.9650 C.2   281  PHE281      0.2264
     92  O         27.1040   14.7820   19.5970 O.2   281  PHE281     -0.2867
     93  CB        27.8550   15.8080   16.4730 C.3   281  PHE281      0.0534
     94  CG        26.5210   15.2390   16.0940 C.ar  281  PHE281     -0.0203
     95  CD1       25.4090   15.4310   16.9070 C.ar  281  PHE281     -0.0042
     96  CD2       26.3740   14.5150   14.9140 C.ar  281  PHE281     -0.0042
     97  CE1       24.1620   14.9110   16.5510 C.ar  281  PHE281     -0.0003
     98  CE2       25.1290   13.9860   14.5410 C.ar  281  PHE281     -0.0003
     99  CZ        24.0190   14.1850   15.3620 C.ar  281  PHE281     -0.0000
    100  N         15.8890   31.1730   16.2160 N.3   294  ARG294     -0.1245
    101  CA        17.0100   30.5120   15.5560 C.3   294  ARG294      0.1563
    102  C         18.3100   31.1730   15.9980 C.2   294  ARG294      0.2260
    103  O         19.1380   30.5620   16.6710 O.2   294  ARG294     -0.2867
    104  CB        16.8750   30.6240   14.0330 C.3   294  ARG294      0.0307
    105  CG        18.1010   30.1460   13.2690 C.3   294  ARG294      0.0489
    106  CD        17.8730   28.7720   12.7000 C.3   294  ARG294      0.2205
    107  NE        16.9130   28.8100   11.5980 N.pl3 294  ARG294     -0.0865
    108  CZ        16.1520   27.7850   11.2270 C.cat 294  ARG294      0.5346
    109  NH1       16.2320   26.6350   11.8720 N.pl3 294  ARG294      0.1354
    110  NH2       15.3100   27.9090   10.2100 N.pl3 294  ARG294      0.1354
    111  N         24.4830   26.4830   12.5230 N.3   312  THR312     -0.1204
    112  CA        23.1310   27.0360   12.4910 C.3   312  THR312      0.1979
    113  C         22.1530   26.0380   13.1130 C.2   312  THR312      0.2460
    114  O         22.0870   24.8770   12.7070 O.2   312  THR312     -0.2732
    115  CB        22.6660   27.3530   11.0410 C.3   312  THR312      0.1783
    116  OG1       23.6020   28.2380   10.4110 O.3   312  THR312     -0.2211
    117  CG2       21.2930   28.0150   11.0570 C.3   312  THR312      0.0376
    118  N         21.3950   26.4770   14.1260 N.am  313  PRO313     -0.2717
    119  CA        20.4120   25.6390   14.8220 C.3   313  PRO313      0.1535
    120  C         19.2380   25.2270   13.9370 C.2   313  PRO313      0.2599
    121  O         18.8620   25.9520   13.0160 O.2   313  PRO313     -0.2715
    122  CB        19.9630   26.5280   15.9830 C.3   313  PRO313      0.0310
    123  CG        21.1710   27.3820   16.2440 C.3   313  PRO313      0.0237
    124  CD        21.6110   27.7410   14.8500 C.3   313  PRO313      0.0939
    125  N         18.6670   24.0560   14.2190 N.am  314  TYR314     -0.1960
    126  CA        17.5260   23.5560   13.4620 C.3   314  TYR314      0.1771
    127  C         16.4320   23.0380   14.3990 C.2   314  TYR314      0.2619
    128  O         16.6860   22.7170   15.5600 O.2   314  TYR314     -0.2715
    129  CB        17.9740   22.4650   12.4680 C.3   314  TYR314      0.0574
    130  CG        18.4590   21.1630   13.0810 C.ar  314  TYR314     -0.0198
    131  CD1       17.5640   20.1410   13.3970 C.ar  314  TYR314     -0.0009
    132  CD2       19.8190   20.9460   13.3270 C.ar  314  TYR314     -0.0009
    133  CE1       18.0070   18.9320   13.9410 C.ar  314  TYR314      0.0417
    134  CE2       20.2750   19.7420   13.8740 C.ar  314  TYR314      0.0417
    135  CZ        19.3600   18.7390   14.1780 C.ar  314  TYR314      0.1957
    136  OH        19.7870   17.5440   14.7230 O.3   314  TYR314     -0.2866
    137  N         15.2080   22.9780   13.8920 N.am  315  ALA315     -0.1977
    138  CA        14.0670   22.5240   14.6730 C.3   315  ALA315      0.1597
    139  C         14.2300   21.0860   15.1450 C.2   315  ALA315      0.2287
    140  O         14.1060   20.1490   14.3540 O.2   315  ALA315     -0.2864
    141  CB        12.7960   22.6590   13.8490 C.3   315  ALA315      0.0319
    142  N         14.7810   23.8560   19.5870 N.3   316  TRP316     -0.1241
    143  CA        15.9270   24.1560   18.7360 C.3   316  TRP316      0.1605
    144  C         17.1850   23.4110   19.1690 C.2   316  TRP316      0.2264
    145  O         17.5460   23.4110   20.3490 O.2   316  TRP316     -0.2867
    146  CB        16.2260   25.6530   18.7520 C.3   316  TRP316      0.0550
    147  CG        15.1090   26.4990   18.2350 C.ar  316  TRP316      0.0003
    148  CD1       14.1630   27.1620   18.9710 C.ar  316  TRP316      0.0946
    149  CD2       14.8060   26.7620   16.8610 C.ar  316  TRP316      0.0152
    150  NE1       13.2900   27.8230   18.1360 N.ar  316  TRP316     -0.2442
    151  CE2       13.6610   27.5930   16.8360 C.ar  316  TRP316      0.0810
    152  CE3       15.3900   26.3740   15.6470 C.ar  316  TRP316      0.0012
    153  CZ2       13.0910   28.0450   15.6410 C.ar  316  TRP316      0.0191
    154  CZ3       14.8220   26.8250   14.4580 C.ar  316  TRP316      0.0001
    155  CH2       13.6830   27.6520   14.4660 C.ar  316  TRP316      0.0015
    156  N         24.2200   22.3400   16.9480 N.3   319  ARG319     -0.1245
    157  CA        25.3160   21.3790   16.8640 C.3   319  ARG319      0.1563
    158  C         26.6620   22.1060   16.9200 C.2   319  ARG319      0.2260
    159  O         26.8990   23.0500   16.1660 O.2   319  ARG319     -0.2867
    160  CB        25.1860   20.5670   15.5640 C.3   319  ARG319      0.0307
    161  CG        26.0810   19.3390   15.4750 C.3   319  ARG319      0.0489
    162  CD        25.8420   18.5370   14.1790 C.3   319  ARG319      0.2205
    163  NE        24.5150   17.9080   14.1260 N.pl3 319  ARG319     -0.0865
    164  CZ        24.1180   17.0830   13.1560 C.cat 319  ARG319      0.5346
    165  NH1       24.9390   16.7840   12.1600 N.pl3 319  ARG319      0.1354
    166  NH2       22.9000   16.5590   13.1680 N.pl3 319  ARG319      0.1354
    167  N         18.1100   13.6680    1.9780 N.3   360  LYS360     -0.1231
    168  CA        18.2910   14.8250    2.8610 C.3   360  LYS360      0.1693
    169  C         18.8700   15.9870    2.0300 C.2   360  LYS360      0.2592
    170  O         19.5090   15.7560    1.0090 O.2   360  LYS360     -0.2718
    171  CB        19.2590   14.4960    4.0120 C.3   360  LYS360      0.0285
    172  CG        18.8310   13.3120    4.8890 C.3   360  LYS360      0.0035
    173  CD        17.5230   13.5820    5.6390 C.3   360  LYS360      0.0206
    174  CE        17.7010   14.6250    6.7380 C.3   360  LYS360      0.1093
    175  NZ        16.4140   14.8620    7.4870 N.3   360  LYS360     -0.1314
    176  N         18.6580   17.2230    2.4830 N.am  361  GLN361     -0.1966
    177  CA        19.1400   18.4030    1.7580 C.3   361  GLN361      0.1733
    178  C         20.6660   18.4220    1.6320 C.2   361  GLN361      0.2616
    179  O         21.1940   18.7840    0.5890 O.2   361  GLN361     -0.2715
    180  CB        18.6710   19.6940    2.4510 C.3   361  GLN361      0.0408
    181  CG        18.6460   20.9320    1.5270 C.3   361  GLN361      0.0908
    182  CD        18.3440   22.2220    2.2840 C.2   361  GLN361      0.2608
    183  OE1       19.2120   22.7840    2.9460 O.2   361  GLN361     -0.2717
    184  NE2       17.1060   22.6860    2.1970 N.am  361  GLN361     -0.0878
    185  N         21.3660   18.0410    2.6970 N.am  362  ASP362     -0.1957
    186  CA        22.8270   18.0160    2.6850 C.3   362  ASP362      0.1840
    187  C         23.4250   16.9020    1.8150 C.2   362  ASP362      0.2621
    188  O         24.6420   16.7010    1.8190 O.2   362  ASP362     -0.2715
    189  CB        23.3700   17.8730    4.1150 C.3   362  ASP362      0.1450
    190  CG        23.1960   19.1380    4.9420 C.2   362  ASP362      0.3671
    191  OD1       22.0540   19.6210    5.0800 O.co2 362  ASP362     -0.2456
    192  OD2       24.2090   19.6550    5.4660 O.co2 362  ASP362     -0.2456
    193  N         22.5840   16.1810    1.0800 N.am  363  GLN363     -0.1977
    194  CA        23.0520   15.1050    0.2070 C.3   363  GLN363      0.1601
    195  C         22.8020   15.4270   -1.2900 C.2   363  GLN363      0.2287
    196  O         23.3740   14.7860   -2.1800 O.2   363  GLN363     -0.2864
    197  CB        22.3400   13.7780    0.5680 C.3   363  GLN363      0.0394
    198  CG        22.5390   13.2600    2.0180 C.3   363  GLN363      0.0908
    199  CD        21.6690   12.0210    2.3470 C.2   363  GLN363      0.2608
    200  OE1       20.6060   11.8050    1.7450 O.2   363  GLN363     -0.2717
    201  NE2       22.1160   11.2210    3.3190 N.am  363  GLN363     -0.0878
    202  N          7.7100   21.0900    7.6030 N.3   387  LYS387     -0.1231
    203  CA         9.0710   21.6130    7.7330 C.3   387  LYS387      0.1693
    204  C          9.8210   21.3530    6.4230 C.2   387  LYS387      0.2592
    205  O         10.5830   20.3860    6.3120 O.2   387  LYS387     -0.2718
    206  CB         9.7850   20.9350    8.9020 C.3   387  LYS387      0.0285
    207  CG         9.0580   21.1200   10.2290 C.3   387  LYS387      0.0035
    208  CD         9.7030   20.3200   11.3430 C.3   387  LYS387      0.0206
    209  CE         8.8730   20.3820   12.6130 C.3   387  LYS387      0.1093
    210  NZ         9.4400   19.5160   13.6860 N.3   387  LYS387     -0.1314
    211  N          9.6080   22.2190    5.4340 N.am  388  GLN388     -0.1966
    212  CA        10.2460   22.0490    4.1290 C.3   388  GLN388      0.1733
    213  C         11.7650   22.1220    4.2020 C.2   388  GLN388      0.2617
    214  O         12.3240   23.0380    4.8030 O.2   388  GLN388     -0.2715
    215  CB         9.7010   23.0770    3.1210 C.3   388  GLN388      0.0408
    216  CG         8.2200   22.8420    2.7520 C.3   388  GLN388      0.0908
    217  CD         7.7760   23.5970    1.5030 C.2   388  GLN388      0.2608
    218  OE1        7.8950   24.8200    1.4270 O.2   388  GLN388     -0.2717
    219  NE2        7.2550   22.8640    0.5180 N.am  388  GLN388     -0.0878
    220  N         12.4210   21.1420    3.5830 N.am  389  GLY389     -0.1940
    221  CA        13.8720   21.0730    3.5930 C.3   389  GLY389      0.2014
    222  C         14.3810   19.8490    4.3490 C.2   389  GLY389      0.2638
    223  O         15.5340   19.4240    4.1670 O.2   389  GLY389     -0.2714
    224  N         13.5310   19.2820    5.2070 N.am  390  GLN390     -0.1977
    225  CA        13.9060   18.0980    5.9870 C.3   390  GLN390      0.1601
    226  C         13.8560   16.8080    5.1490 C.2   390  GLN390      0.2287
    227  O         14.5300   15.8240    5.4760 O.2   390  GLN390     -0.2864
    228  CB        12.9850   17.9320    7.2160 C.3   390  GLN390      0.0394
    229  CG        13.0560   19.0500    8.2520 C.3   390  GLN390      0.0908
    230  CD        12.4500   18.6610    9.6080 C.2   390  GLN390      0.2608
    231  OE1       11.4620   17.9180    9.6800 O.2   390  GLN390     -0.2717
    232  NE2       13.0340   19.1790   10.6860 N.am  390  GLN390     -0.0878
    233  N         14.4530   25.2210   -2.5740 N.3   445  TYR445     -0.1241
    234  CA        13.0870   25.5740   -2.2160 C.3   445  TYR445      0.1605
    235  C         12.1780   25.9560   -3.3990 C.2   445  TYR445      0.2264
    236  O         10.9660   26.1120   -3.2240 O.2   445  TYR445     -0.2867
    237  CB        13.1280   26.7010   -1.1690 C.3   445  TYR445      0.0534
    238  CG        13.8100   26.2870    0.1300 C.ar  445  TYR445     -0.0201
    239  CD1       13.1820   25.4140    1.0220 C.ar  445  TYR445     -0.0009
    240  CD2       15.1010   26.7280    0.4440 C.ar  445  TYR445     -0.0009
    241  CE1       13.8230   24.9840    2.1960 C.ar  445  TYR445      0.0417
    242  CE2       15.7510   26.3050    1.6130 C.ar  445  TYR445      0.0417
    243  CZ        15.1050   25.4330    2.4800 C.ar  445  TYR445      0.1957
    244  OH        15.7430   25.0010    3.6230 O.3   445  TYR445     -0.2866
@<TRIPOS>BOND
     1   235   236    2
     2   235   234    1
     3   233   234    1
     4   234   237    1
     5   196   195    2
     6   195   194    1
     7   237   238    1
     8   238   240   ar
     9   238   239   ar
    10   194   197    1
    11   194   193    1
    12   240   242   ar
    13   219   217   am
    14   197   198    1
    15   179   178    2
    16   170   169    2
    17   239   241   ar
    18   193   187   am
    19   218   217    2
    20   217   216    1
    21   181   182    1
    22   181   180    1
    23   242   243   ar
    24   178   177    1
    25   178   185   am
    26   200   199    2
    27   177   180    1
    28   177   176    1
    29   187   188    2
    30   187   186    1
    31   167   168    1
    32   198   199    1
    33   169   176   am
    34   169   168    1
    35   241   243   ar
    36   184   182   am
    37   182   183    2
    38   199   201   am
    39   243   244    1
    40    47    46    2
    41   186   185    1
    42   186   189    1
    43   216   215    1
    44   168   171    1
    45   215   212    1
    46    44    45    1
    47    46    45    1
    48    45    48    1
    49   220   221    1
    50   220   213   am
    51   221   222    1
    52   171   172    1
    53   189   190    1
    54   212   213    1
    55   212   211    1
    56   223   222    2
    57   213   214    2
    58    51    49    1
    59   222   224   am
    60    48    49    1
    61   172   173    1
    62   190   191   ar
    63   190   192   ar
    64   226   227    2
    65   226   225    1
    66    49    50    1
    67   224   225    1
    68   211   204   am
    69   173   174    1
    70     5     6    1
    71     5     2    1
    72    70    71    1
    73   225   228    1
    74    74    71    1
    75    74    75    1
    76    71    72    1
    77   205   204    2
    78     6     7   ar
    79     6     8   ar
    80   204   203    1
    81     7     9   ar
    82    76    75    1
    83    76    77    1
    84     2     1    1
    85     2     3    1
    86   174   175    1
    87     8    10   ar
    88     9    11   ar
    89    79    78    1
    90   228   229    1
    91    10    11   ar
    92   202   203    1
    93    72    73    2
    94    77    78    2
    95   203   206    1
    96    78    80    1
    97     3     4    2
    98     3    12   am
    99   229   230    1
   100   206   207    1
   101    12    13    1
   102    87    86   ar
   103    52    53    1
   104   230   231    2
   105   230   232   am
   106    56    53    1
   107    56    57    1
   108    53    54    1
   109    57    58    1
   110    13    14    1
   111   110   108    1
   112   207   208    1
   113    86    88   ar
   114    86    85    1
   115    81    82    1
   116    26    24    1
   117   116   115    1
   118    82    85    1
   119    82    83    1
   120   115   117    1
   121   115   112    1
   122    14    15    2
   123   108   107    2
   124   108   109    1
   125    54    55    2
   126   208   209    1
   127    24    25    1
   128    24    23    2
   129   107   106    1
   130    59    58    1
   131    83    84    2
   132   165   164    1
   133    23    22    1
   134   129   130    1
   135   129   126    1
   136   112   111    1
   137   112   113    1
   138    16    17    1
   139   209   210    1
   140   106   105    1
   141   114   113    2
   142    20    17    1
   143    20    21    1
   144    17    18    1
   145   121   120    2
   146   130   132   ar
   147   130   131   ar
   148   113   118   am
   149   164   166    1
   150   164   163    2
   151   105   104    1
   152    21    22    1
   153   132   134   ar
   154   131   133   ar
   155   126   125    1
   156   126   127    1
   157   141   138    1
   158   134   135   ar
   159   137   127   am
   160   137   138    1
   161   120   125   am
   162   120   119    1
   163   133   135   ar
   164   104   101    1
   165   118   119    1
   166   118   124    1
   167   163   162    1
   168   135   136    1
   169   162   161    1
   170    34    33   ar
   171    18    19    2
   172   140   139    2
   173   127   128    2
   174    35    33   ar
   175   154   155   ar
   176   154   152   ar
   177   155   153   ar
   178    98    96   ar
   179    98    99   ar
   180   138   139    1
   181    33    32    1
   182   119   122    1
   183   124   123    1
   184    96    94   ar
   185    99    97   ar
   186   161   160    1
   187   101   102    1
   188   101   100    1
   189   160   157    1
   190    31    32    1
   191    31    28    1
   192   153   151   ar
   193   152   149   ar
   194   122   123    1
   195   102   103    2
   196    94    93    1
   197    94    95   ar
   198   159   158    2
   199    27    28    1
   200    93    90    1
   201    28    29    1
   202    97    95   ar
   203    69    68   ar
   204    69    67   ar
   205   151   149   ar
   206   151   150   ar
   207   149   147   ar
   208   157   158    1
   209   157   156    1
   210    68    66   ar
   211    67    65   ar
   212    89    90    1
   213    90    91    1
   214    29    30    2
   215    60    61    1
   216   150   148   ar
   217   147   146    1
   218   147   148   ar
   219    66    65   ar
   220    65    64    1
   221    43    41   ar
   222   143   146    1
   223   143   144    1
   224   143   142    1
   225    61    64    1
   226    61    62    1
   227    91    92    2
   228   144   145    2
   229    41    42   ar
   230    41    40    1
   231    63    62    2
   232    40    37    1
   233    36    37    1
   234    37    38    1
   235    38    39    2
