@<TRIPOS>MOLECULE
tmp/1ktwA00.pdb
 104 98 0 0 0
SMALL
GASTEIGER

@<TRIPOS>ATOM
      1  N         -3.7360   12.8660   23.7840 N.3    94  GLY94      -0.1210
      2  CA        -2.5890   13.4810   23.1320 C.3    94  GLY94       0.1956
      3  C         -1.1850   13.0270   23.5110 C.2    94  GLY94       0.2612
      4  O         -0.2050   13.5800   23.0100 O.2    94  GLY94      -0.2717
      5  N         -1.0650   12.0290   24.3820 N.am   95  LYS95      -0.1965
      6  CA         0.2560   11.5600   24.7890 C.3    95  LYS95       0.1728
      7  C          0.8630   10.5200   23.8370 C.2    95  LYS95       0.2616
      8  O          0.2180   10.0820   22.8820 O.2    95  LYS95      -0.2715
      9  CB         0.1950   10.9910   26.2100 C.3    95  LYS95       0.0311
     10  CG        -0.2280   12.0150   27.2620 C.3    95  LYS95       0.0038
     11  CD        -0.3270   11.4010   28.6480 C.3    95  LYS95       0.0206
     12  CE        -0.5820   12.4700   29.7010 C.3    95  LYS95       0.1093
     13  NZ        -0.5780   11.9110   31.0830 N.3    95  LYS95      -0.1314
     14  N          2.1150   10.1460   24.0960 N.am   96  ASN96      -0.1972
     15  CA         2.7990    9.1450   23.2810 C.3    96  ASN96       0.1688
     16  C          2.2940    7.7600   23.7030 C.2    96  ASN96       0.2292
     17  O          2.3430    7.4040   24.8780 O.2    96  ASN96      -0.2864
     18  CB         4.3110    9.2690   23.4600 C.3    96  ASN96       0.1181
     19  CG         4.8260   10.6510   23.0650 C.2    96  ASN96       0.2629
     20  OD1        4.3460   11.2490   22.1060 O.2    96  ASN96      -0.2716
     21  ND2        5.8070   11.1560   23.8010 N.am   96  ASN96      -0.0877
     22  N          1.8070    3.3050   23.0140 N.3    98  ARG98      -0.1245
     23  CA         2.3990    2.0680   22.4980 C.3    98  ARG98       0.1563
     24  C          1.3550    0.9640   22.6580 C.2    98  ARG98       0.2260
     25  O          0.5500    1.0030   23.5960 O.2    98  ARG98      -0.2867
     26  CB         3.6530    1.6520   23.2940 C.3    98  ARG98       0.0307
     27  CG         4.7390    2.7170   23.4890 C.3    98  ARG98       0.0489
     28  CD         4.4860    3.4120   24.8090 C.3    98  ARG98       0.2205
     29  NE         5.3920    4.5090   25.1030 N.pl3  98  ARG98      -0.0865
     30  CZ         5.3010    5.2440   26.2050 C.cat  98  ARG98       0.5346
     31  NH1        4.3470    4.9830   27.0890 N.pl3  98  ARG98       0.1354
     32  NH2        6.1520    6.2340   26.4290 N.pl3  98  ARG98       0.1354
     33  N          7.6420   -1.0260   23.1120 N.3   136  LYS136     -0.1245
     34  CA         8.6310   -0.1930   23.8080 C.3   136  LYS136      0.1561
     35  C          9.2700   -1.1180   24.8700 C.2   136  LYS136      0.2260
     36  O          8.5850   -1.6140   25.7730 O.2   136  LYS136     -0.2867
     37  CB         8.0230    1.0260   24.5000 C.3   136  LYS136      0.0271
     38  CG         9.1110    1.8380   25.2100 C.3   136  LYS136      0.0035
     39  CD         8.5950    3.0940   25.8940 C.3   136  LYS136      0.0206
     40  CE         9.7720    3.8020   26.5650 C.3   136  LYS136      0.1093
     41  NZ         9.3870    4.9570   27.4140 N.3   136  LYS136     -0.1314
     42  N          7.5940    8.1560   15.6020 N.3   157  PHE157     -0.1241
     43  CA         8.2550    7.0600   16.3460 C.3   157  PHE157      0.1605
     44  C          8.5340    5.7840   15.5470 C.2   157  PHE157      0.2264
     45  O          7.7180    5.3740   14.7160 O.2   157  PHE157     -0.2867
     46  CB         7.4380    6.6430   17.5850 C.3   157  PHE157      0.0534
     47  CG         7.3410    7.7090   18.6520 C.ar  157  PHE157     -0.0203
     48  CD1        8.4770    8.1400   19.3320 C.ar  157  PHE157     -0.0042
     49  CD2        6.1200    8.3100   18.9400 C.ar  157  PHE157     -0.0042
     50  CE1        8.3970    9.1680   20.2850 C.ar  157  PHE157     -0.0003
     51  CE2        6.0230    9.3340   19.8880 C.ar  157  PHE157     -0.0003
     52  CZ         7.1640    9.7640   20.5590 C.ar  157  PHE157     -0.0000
     53  N         11.0580    0.1320   19.8860 N.3   161  LEU161     -0.1245
     54  CA        12.0270    0.9450   20.6230 C.3   161  LEU161      0.1561
     55  C         12.8070    0.1040   21.6510 C.2   161  LEU161      0.2260
     56  O         12.2650   -0.3000   22.6820 O.2   161  LEU161     -0.2867
     57  CB        11.3060    2.1020   21.3470 C.3   161  LEU161      0.0270
     58  CG        10.3020    2.9340   20.5240 C.3   161  LEU161      0.0019
     59  CD1        9.4690    3.8130   21.4600 C.3   161  LEU161      0.0001
     60  CD2       11.0360    3.7780   19.4840 C.3   161  LEU161      0.0001
     61  N         14.7770    0.5380   24.1770 N.3   163  ASP163     -0.1239
     62  CA        15.0280    1.6730   25.0890 C.3   163  ASP163      0.1674
     63  C         15.5240    1.4250   26.5340 C.2   163  ASP163      0.2266
     64  O         15.7060    0.2830   26.9630 O.2   163  ASP163     -0.2867
     65  CB        13.7100    2.4570   25.1600 C.3   163  ASP163      0.1410
     66  CG        13.8760    3.9750   24.9960 C.2   163  ASP163      0.3668
     67  OD1       14.9090    4.5440   25.4210 O.co2 163  ASP163     -0.2456
     68  OD2       12.9340    4.5940   24.4620 O.co2 163  ASP163     -0.2456
     69  N         18.5050    2.2290   21.5920 N.3   197  TYR197     -0.1241
     70  CA        19.0520    3.1770   22.5790 C.3   197  TYR197      0.1605
     71  C         20.0000    2.4930   23.5760 C.2   197  TYR197      0.2264
     72  O         21.1510    2.9080   23.7280 O.2   197  TYR197     -0.2867
     73  CB        17.9060    3.8640   23.3290 C.3   197  TYR197      0.0534
     74  CG        16.9760    4.6440   22.4240 C.ar  197  TYR197     -0.0201
     75  CD1       17.3310    5.9020   21.9270 C.ar  197  TYR197     -0.0009
     76  CD2       15.7350    4.1160   22.0580 C.ar  197  TYR197     -0.0009
     77  CE1       16.4620    6.6240   21.0860 C.ar  197  TYR197      0.0417
     78  CE2       14.8660    4.8180   21.2260 C.ar  197  TYR197      0.0417
     79  CZ        15.2330    6.0700   20.7450 C.ar  197  TYR197      0.1957
     80  OH        14.3660    6.7530   19.9200 O.3   197  TYR197     -0.2866
     81  N         18.7360    9.1260   23.1970 N.3   221  ASN221     -0.1225
     82  CA        17.7690    9.3620   24.2730 C.3   221  ASN221      0.1785
     83  C         18.3940   10.3050   25.3140 C.2   221  ASN221      0.2597
     84  O         19.4940   10.0550   25.8000 O.2   221  ASN221     -0.2718
     85  CB        17.4140    8.0310   24.9480 C.3   221  ASN221      0.1169
     86  CG        16.2720    8.1550   25.9220 C.2   221  ASN221      0.2627
     87  OD1       16.2300    9.0840   26.7360 O.2   221  ASN221     -0.2716
     88  ND2       15.3340    7.2080   25.8600 N.am  221  ASN221     -0.0877
     89  N         17.6810   11.3710   25.6700 N.am  222  LEU222     -0.1966
     90  CA        18.1840   12.3390   26.6480 C.3   222  LEU222      0.1728
     91  C         18.5060   11.7760   28.0450 C.2   222  LEU222      0.2616
     92  O         19.4260   12.2600   28.7140 O.2   222  LEU222     -0.2715
     93  CB        17.2000   13.5080   26.7680 C.3   222  LEU222      0.0311
     94  CG        17.0570   14.3480   25.4910 C.3   222  LEU222      0.0022
     95  CD1       15.9620   15.4070   25.6660 C.3   222  LEU222      0.0001
     96  CD2       18.4000   15.0050   25.1610 C.3   222  LEU222      0.0001
     97  N         17.7560   10.7740   28.4960 N.am  223  LEU223     -0.1977
     98  CA        18.0270   10.1700   29.8050 C.3   223  LEU223      0.1596
     99  C         19.4680    9.6570   29.8380 C.2   223  LEU223      0.2287
    100  O         20.1530    9.7650   30.8610 O.2   223  LEU223     -0.2864
    101  CB        17.0830    8.9890   30.0740 C.3   223  LEU223      0.0297
    102  CG        15.7120    9.2240   30.7070 C.3   223  LEU223      0.0022
    103  CD1       14.9320    7.9150   30.7450 C.3   223  LEU223      0.0001
    104  CD2       15.8870    9.7690   32.1200 C.3   223  LEU223      0.0001
@<TRIPOS>BOND
     1    45    44    2
     2    44    43    1
     3    42    43    1
     4    43    46    1
     5    46    47    1
     6    47    49   ar
     7    47    48   ar
     8    49    51   ar
     9    48    50   ar
    10    60    58    1
    11    53    54    1
    12    51    52   ar
    13    80    79    1
    14    50    52   ar
    15    58    57    1
    16    58    59    1
    17    54    57    1
    18    54    55    1
    19    79    77   ar
    20    79    78   ar
    21    77    75   ar
    22    78    76   ar
    23    69    70    1
    24    55    56    2
    25    75    74   ar
    26    76    74   ar
    27    20    19    2
    28    74    73    1
    29    23    24    1
    30    23    22    1
    31    23    26    1
    32    70    73    1
    33    70    71    1
    34    24    25    2
    35     8     7    2
    36     4     3    2
    37    19    18    1
    38    19    21   am
    39    33    34    1
    40     2     3    1
    41     2     1    1
    42    81    82    1
    43    15    18    1
    44    15    16    1
    45    15    14    1
    46    26    27    1
    47    27    28    1
    48     3     5   am
    49    71    72    2
    50    16    17    2
    51    34    37    1
    52    34    35    1
    53     7    14   am
    54     7     6    1
    55    61    62    1
    56    82    85    1
    57    82    83    1
    58     5     6    1
    59    68    66   ar
    60    37    38    1
    61     6     9    1
    62    28    29    1
    63    35    36    2
    64    85    86    1
    65    66    65    1
    66    66    67   ar
    67    62    65    1
    68    62    63    1
    69    29    30    2
    70    96    94    1
    71    38    39    1
    72    83    89   am
    73    83    84    2
    74    94    95    1
    75    94    93    1
    76    89    90    1
    77    88    86   am
    78    39    40    1
    79    86    87    2
    80    30    32    1
    81    30    31    1
    82     9    10    1
    83    63    64    2
    84    40    41    1
    85    90    93    1
    86    90    91    1
    87    10    11    1
    88    91    97   am
    89    91    92    2
    90    97    98    1
    91    11    12    1
    92    12    13    1
    93    98    99    1
    94    98   101    1
    95    99   100    2
    96   101   102    1
    97   102   103    1
    98   102   104    1
