@<TRIPOS>MOLECULE
tmp/1kugA00.pdb
 148 145 0 0 0
SMALL
GASTEIGER

@<TRIPOS>ATOM
      1  N         14.3380    1.7490    8.0820 N.3   105  ARG105     -0.1231
      2  CA        13.8050    2.4790    6.9230 C.3   105  ARG105      0.1694
      3  C         14.2580    3.9350    6.8480 C.2   105  ARG105      0.2592
      4  O         13.5080    4.8070    6.3920 O.2   105  ARG105     -0.2718
      5  CB        12.2780    2.3390    6.8810 C.3   105  ARG105      0.0321
      6  CG        11.8450    0.8940    6.8650 C.3   105  ARG105      0.0489
      7  CD        10.3780    0.7340    6.5070 C.3   105  ARG105      0.2205
      8  NE        10.0070    1.5290    5.3380 N.pl3 105  ARG105     -0.0865
      9  CZ         8.7520    1.7510    4.9430 C.cat 105  ARG105      0.5346
     10  NH1        7.7340    1.2320    5.6230 N.pl3 105  ARG105      0.1354
     11  NH2        8.5120    2.5110    3.8740 N.pl3 105  ARG105      0.1354
     12  N         15.4730    4.2130    7.3040 N.am  106  ASN106     -0.1960
     13  CA        16.0430    5.5560    7.2350 C.3   106  ASN106      0.1819
     14  C         15.0360    6.5320    7.8760 C.2   106  ASN106      0.2622
     15  O         14.7780    7.6310    7.3450 O.2   106  ASN106     -0.2715
     16  CB        16.2770    5.9110    5.7450 C.3   106  ASN106      0.1195
     17  CG        17.2490    7.0320    5.5480 C.2   106  ASN106      0.2630
     18  OD1       17.2270    7.6870    4.4910 O.2   106  ASN106     -0.2716
     19  ND2       18.1280    7.2600    6.5150 N.am  106  ASN106     -0.0877
     20  N         14.4850    6.1530    9.0280 N.am  107  THR107     -0.1937
     21  CA        13.4530    6.9760    9.6790 C.3   107  THR107      0.2028
     22  C         14.0440    7.9320   10.6940 C.2   107  THR107      0.2642
     23  O         14.8780    7.5540   11.5090 O.2   107  THR107     -0.2714
     24  CB        12.4460    6.0630   10.3840 C.3   107  THR107      0.1808
     25  OG1       11.7580    5.2960    9.3860 O.3   107  THR107     -0.2208
     26  CG2       11.3970    6.8530   11.1890 C.3   107  THR107      0.0379
     27  N         13.6300    9.1960   10.6270 N.am  108  ILE108     -0.1963
     28  CA        14.1200   10.2000   11.5580 C.3   108  ILE108      0.1727
     29  C         13.0670   10.6810   12.5620 C.2   108  ILE108      0.2617
     30  O         13.3910   11.4200   13.5050 O.2   108  ILE108     -0.2715
     31  CB        14.7370   11.4060   10.8100 C.3   108  ILE108      0.0290
     32  CG1       13.6980   12.0280    9.8690 C.3   108  ILE108      0.0022
     33  CG2       16.0040   10.9350   10.0740 C.3   108  ILE108      0.0023
     34  CD1       14.1480   13.4120    9.2640 C.3   108  ILE108      0.0001
     35  N         11.8120   10.2710   12.3490 N.am  109  GLY109     -0.1940
     36  CA        10.7500   10.6200   13.2750 C.3   109  GLY109      0.2014
     37  C          9.4560    9.9110   12.9360 C.2   109  GLY109      0.2638
     38  O          9.2670    9.4950   11.7850 O.2   109  GLY109     -0.2714
     39  N          8.5860    9.7400   13.9310 N.am  110  TRP110     -0.1973
     40  CA         7.2850    9.1030   13.7180 C.3   110  TRP110      0.1640
     41  C          6.3240    9.5190   14.8250 C.2   110  TRP110      0.2290
     42  O          6.7360    9.7350   15.9730 O.2   110  TRP110     -0.2864
     43  CB         7.4540    7.5730   13.7310 C.3   110  TRP110      0.0576
     44  CG         6.2410    6.8250   13.2250 C.ar  110  TRP110      0.0006
     45  CD1        5.9780    6.4770   11.9240 C.ar  110  TRP110      0.0946
     46  CD2        5.1340    6.3790   13.9950 C.ar  110  TRP110      0.0152
     47  NE1        4.7610    5.8350   11.8460 N.ar  110  TRP110     -0.2442
     48  CE2        4.2260    5.7630   13.1060 C.ar  110  TRP110      0.0810
     49  CE3        4.8130    6.4410   15.3550 C.ar  110  TRP110      0.0012
     50  CZ2        3.0140    5.2060   13.5320 C.ar  110  TRP110      0.0191
     51  CZ3        3.6050    5.8910   15.7790 C.ar  110  TRP110      0.0001
     52  CH2        2.7250    5.2830   14.8710 C.ar  110  TRP110      0.0015
     53  N         12.8620   20.9060   13.6790 N.3   138  VAL138     -0.1231
     54  CA        11.8020   20.8920   12.6590 C.3   138  VAL138      0.1692
     55  C         11.2130   19.4660   12.5160 C.2   138  VAL138      0.2592
     56  O         10.0340   19.2990   12.1590 O.2   138  VAL138     -0.2718
     57  CB        12.3010   21.5150   11.3120 C.3   138  VAL138      0.0266
     58  CG1       13.2210   20.5850   10.5690 C.3   138  VAL138      0.0020
     59  CG2       11.0860   21.9330   10.4650 C.3   138  VAL138      0.0020
     60  N         12.0190   18.4530   12.8450 N.am  139  THR139     -0.1953
     61  CA        11.5110   17.0760   12.8370 C.3   139  THR139      0.1897
     62  C         10.5280   16.9120   14.0070 C.2   139  THR139      0.2313
     63  O          9.4520   16.3300   13.8180 O.2   139  THR139     -0.2863
     64  CB        12.6620   16.0970   12.9580 C.3   139  THR139      0.1794
     65  OG1       13.5560   16.3030   11.8430 O.3   139  THR139     -0.2208
     66  CG2       12.1430   14.6800   12.9070 C.3   139  THR139      0.0378
     67  N          7.3850   18.6750   12.8900 N.3   142  HIS142     -0.1226
     68  CA         6.6730   17.8920   11.8700 C.3   142  HIS142      0.1752
     69  C          5.8540   16.7700   12.5810 C.2   142  HIS142      0.2595
     70  O          4.6660   16.5620   12.2790 O.2   142  HIS142     -0.2718
     71  CB         7.7360   17.2790   10.9410 C.3   142  HIS142      0.0759
     72  CG         7.1860   16.3680    9.8870 C.ar  142  HIS142      0.0818
     73  ND1        7.0150   16.7580    8.5820 N.ar  142  HIS142     -0.2268
     74  CD2        6.7960   15.0710    9.9500 C.ar  142  HIS142      0.1154
     75  CE1        6.5640   15.7240    7.8720 C.ar  142  HIS142      0.1986
     76  NE2        6.4110   14.6830    8.6860 N.ar  142  HIS142     -0.2212
     77  N          6.4700   16.0550   13.5360 N.am  143  GLU143     -0.1979
     78  CA         5.7230   14.9980   14.2460 C.3   143  GLU143      0.1602
     79  C          4.5960   15.5910   15.1130 C.2   143  GLU143      0.2287
     80  O          3.5090   15.0170   15.2190 O.2   143  GLU143     -0.2864
     81  CB         6.6760   14.1150   15.0870 C.3   143  GLU143      0.0415
     82  CG         7.8450   13.5510   14.2630 C.3   143  GLU143      0.1163
     83  CD         7.4330   12.7960   13.0150 C.2   143  GLU143      0.3649
     84  OE1        8.3200   12.6670   12.1090 O.co2 143  GLU143     -0.2457
     85  OE2        6.2720   12.3310   12.9030 O.co2 143  GLU143     -0.2457
     86  N          1.7740   16.2410   12.8210 N.3   146  HIS146     -0.1241
     87  CA         0.9680   15.0360   12.6080 C.3   146  HIS146      0.1621
     88  C          0.0240   14.7880   13.7890 C.2   146  HIS146      0.2264
     89  O         -1.1380   14.4510   13.5880 O.2   146  HIS146     -0.2867
     90  CB         1.8390   13.7760   12.4730 C.3   146  HIS146      0.0745
     91  CG         2.4500   13.5800   11.1240 C.ar  146  HIS146      0.0817
     92  ND1        1.7060   13.5790    9.9610 N.ar  146  HIS146     -0.2268
     93  CD2        3.7140   13.2540   10.7600 C.ar  146  HIS146      0.1154
     94  CE1        2.4880   13.2510    8.9430 C.ar  146  HIS146      0.1986
     95  NE2        3.7140   13.0480    9.3970 N.ar  146  HIS146     -0.2212
     96  N          0.9120   14.9900    5.2510 N.3   152  HIS152     -0.1241
     97  CA         1.9300   15.6560    4.4570 C.3   152  HIS152      0.1621
     98  C          1.3450   16.6240    3.4650 C.2   152  HIS152      0.2264
     99  O          0.2110   16.4330    2.9630 O.2   152  HIS152     -0.2867
    100  CB         2.7660   14.6300    3.6670 C.3   152  HIS152      0.0745
    101  CG         3.6420   13.8030    4.5460 C.ar  152  HIS152      0.0817
    102  ND1        4.1650   12.5890    4.1600 N.ar  152  HIS152     -0.2268
    103  CD2        4.0910   14.0250    5.8080 C.ar  152  HIS152      0.1154
    104  CE1        4.8950   12.0910    5.1470 C.ar  152  HIS152      0.1986
    105  NE2        4.8620   12.9370    6.1680 N.ar  152  HIS152     -0.2212
    106  N          7.0400   22.7770    6.7830 N.3   164  ILE164     -0.1245
    107  CA         7.2670   21.7960    7.8230 C.3   164  ILE164      0.1561
    108  C          6.7090   20.4070    7.5170 C.2   164  ILE164      0.2260
    109  O          7.3990   19.4480    7.7920 O.2   164  ILE164     -0.2867
    110  CB         6.6800   22.3300    9.1530 C.3   164  ILE164      0.0252
    111  CG1        7.5000   23.5510    9.6130 C.3   164  ILE164      0.0019
    112  CG2        6.7250   21.2300   10.2540 C.3   164  ILE164      0.0019
    113  CD1        6.7820   24.4010   10.6940 C.3   164  ILE164      0.0001
    114  N          6.3540   18.9380    4.6680 N.3   166  SER166     -0.1202
    115  CA         6.7820   18.3670    3.3850 C.3   166  SER166      0.2020
    116  C          6.9470   16.8660    3.5890 C.2   166  SER166      0.2619
    117  O          7.2930   16.3890    4.6770 O.2   166  SER166     -0.2717
    118  CB         8.0890   19.0190    2.9190 C.3   166  SER166      0.2103
    119  OG         9.1480   18.8120    3.8370 O.3   166  SER166     -0.2182
    120  N          6.7180   16.1180    2.5110 N.am  167  ALA167     -0.1965
    121  CA         6.8300   14.6730    2.6100 C.3   167  ALA167      0.1728
    122  C          8.2200   14.1570    3.0160 C.2   167  ALA167      0.2616
    123  O          8.3330   13.1060    3.6360 O.2   167  ALA167     -0.2715
    124  CB         6.3880   14.0570    1.2750 C.3   167  ALA167      0.0334
    125  N          9.2570   14.8970    2.6450 N.am  168  VAL168     -0.1963
    126  CA        10.6350   14.5850    2.9640 C.3   168  VAL168      0.1727
    127  C         11.3320   15.8530    3.4220 C.2   168  VAL168      0.2616
    128  O         11.0660   16.9280    2.9120 O.2   168  VAL168     -0.2715
    129  CB        11.3550   14.0520    1.7240 C.3   168  VAL168      0.0290
    130  CG1       12.6860   13.4480    2.1140 C.3   168  VAL168      0.0023
    131  CG2       10.4150   13.0940    1.0340 C.3   168  VAL168      0.0023
    132  N         12.2240   15.7020    4.3900 N.am  169  ILE169     -0.1977
    133  CA        13.0100   16.8150    4.8770 C.3   169  ILE169      0.1596
    134  C         14.1070   17.1240    3.8490 C.2   169  ILE169      0.2287
    135  O         14.4880   16.2570    3.0380 O.2   169  ILE169     -0.2864
    136  CB        13.6920   16.4370    6.2630 C.3   169  ILE169      0.0276
    137  CG1       14.2060   17.6900    6.9800 C.3   169  ILE169      0.0022
    138  CG2       14.8390   15.4600    6.0520 C.3   169  ILE169      0.0022
    139  CD1       14.6870   17.4070    8.4440 C.3   169  ILE169      0.0001
    140  N         14.9470   23.1040    4.3990 N.3   173  GLN173     -0.1245
    141  CA        13.6960   23.0860    5.1730 C.3   173  GLN173      0.1566
    142  C         13.3500   24.4670    5.7160 C.2   173  GLN173      0.2260
    143  O         14.2010   25.1390    6.3270 O.2   173  GLN173     -0.2867
    144  CB        13.7820   22.0950    6.3550 C.3   173  GLN173      0.0367
    145  CG        12.4230   21.6020    6.7810 C.3   173  GLN173      0.0905
    146  CD        11.7730   20.7520    5.7180 C.2   173  GLN173      0.2608
    147  OE1       12.4540   20.0500    5.0080 O.2   173  GLN173     -0.2717
    148  NE2       10.4410   20.7970    5.6200 N.am  173  GLN173     -0.0878
@<TRIPOS>BOND
     1   131   129    1
     2   124   121    1
     3   129   130    1
     4   129   126    1
     5   120   121    1
     6   120   116   am
     7   121   122    1
     8   125   126    1
     9   125   122   am
    10   128   127    2
    11   118   115    1
    12   118   119    1
    13    99    98    2
    14   126   127    1
    15   122   123    2
    16   135   134    2
    17   115   116    1
    18   115   114    1
    19   127   132   am
    20    98    97    1
    21   116   117    2
    22   100    97    1
    23   100   101    1
    24   134   133    1
    25    11     9    1
    26   102   101   ar
    27   102   104   ar
    28   132   133    1
    29   140   141    1
    30    97    96    1
    31    18    17    2
    32   101   103   ar
    33   133   136    1
    34     9     8    2
    35     9    10    1
    36   147   146    2
    37   104   105   ar
    38   141   142    1
    39   141   144    1
    40     8     7    1
    41    17    16    1
    42    17    19   am
    43   148   146   am
    44   142   143    2
    45   146   145    1
    46    16    13    1
    47   103   105   ar
    48   138   136    1
    49   136   137    1
    50   144   145    1
    51     4     3    2
    52     7     6    1
    53   106   107    1
    54     3     2    1
    55     3    12   am
    56     6     5    1
    57     5     2    1
    58     2     1    1
    59   137   139    1
    60    13    12    1
    61    13    14    1
    62    15    14    2
    63   108   109    2
    64   108   107    1
    65   107   110    1
    66    75    73   ar
    67    75    76   ar
    68    14    20   am
    69    73    72   ar
    70    76    74   ar
    71    94    95   ar
    72    94    92   ar
    73    20    21    1
    74   110   111    1
    75   110   112    1
    76    34    32    1
    77    25    24    1
    78    95    93   ar
    79   111   113    1
    80    21    24    1
    81    21    22    1
    82    32    31    1
    83    72    74   ar
    84    72    71    1
    85    92    91   ar
    86    33    31    1
    87    24    26    1
    88    59    57    1
    89    58    57    1
    90    27    22   am
    91    27    28    1
    92    22    23    2
    93    93    91   ar
    94    31    28    1
    95    71    68    1
    96    91    90    1
    97    57    54    1
    98    28    29    1
    99    38    37    2
   100    65    64    1
   101    47    45   ar
   102    47    48   ar
   103    68    69    1
   104    68    67    1
   105    45    44   ar
   106    84    83   ar
   107    56    55    2
   108    70    69    2
   109    35    29   am
   110    35    36    1
   111    90    87    1
   112    55    54    1
   113    55    60   am
   114    29    30    2
   115    69    77   am
   116    87    86    1
   117    87    88    1
   118    54    53    1
   119    61    60    1
   120    61    64    1
   121    61    62    1
   122    85    83   ar
   123    66    64    1
   124    37    36    1
   125    37    39   am
   126    83    82    1
   127    48    50   ar
   128    48    46   ar
   129    44    43    1
   130    44    46   ar
   131    50    52   ar
   132    77    78    1
   133    89    88    2
   134    40    43    1
   135    40    39    1
   136    40    41    1
   137    63    62    2
   138    46    49   ar
   139    78    81    1
   140    78    79    1
   141    82    81    1
   142    41    42    2
   143    52    51   ar
   144    79    80    2
   145    49    51   ar
