@<TRIPOS>MOLECULE
tmp/1kuiA00.pdb
 148 145 0 0 0
SMALL
GASTEIGER

@<TRIPOS>ATOM
      1  N         13.9030    0.7260    7.8990 N.3   105  ARG105     -0.1231
      2  CA        13.2760    1.3920    6.7740 C.3   105  ARG105      0.1694
      3  C         13.6640    2.8420    6.6610 C.2   105  ARG105      0.2592
      4  O         12.8460    3.6940    6.2450 O.2   105  ARG105     -0.2718
      5  CB        11.7640    1.1790    6.8580 C.3   105  ARG105      0.0321
      6  CG        11.4380   -0.3100    7.0650 C.3   105  ARG105      0.0489
      7  CD         9.9360   -0.6990    7.0850 C.3   105  ARG105      0.2205
      8  NE         9.1130   -0.1290    8.1610 N.pl3 105  ARG105     -0.0865
      9  CZ         9.1410   -0.4580    9.4560 C.cat 105  ARG105      0.5346
     10  NH1        9.9710   -1.3770    9.9160 N.pl3 105  ARG105      0.1354
     11  NH2        8.2880    0.1220   10.2980 N.pl3 105  ARG105      0.1354
     12  N         14.9140    3.1450    7.0260 N.am  106  ASN106     -0.1960
     13  CA        15.4610    4.4880    6.9080 C.3   106  ASN106      0.1819
     14  C         14.5810    5.5060    7.6490 C.2   106  ASN106      0.2622
     15  O         14.4640    6.6780    7.2490 O.2   106  ASN106     -0.2715
     16  CB        15.5620    4.8480    5.4160 C.3   106  ASN106      0.1195
     17  CG        16.6520    5.8460    5.1400 C.2   106  ASN106      0.2630
     18  OD1       16.6610    6.4880    4.0910 O.2   106  ASN106     -0.2716
     19  ND2       17.5900    5.9880    6.0700 N.am  106  ASN106     -0.0877
     20  N         14.0200    5.0710    8.7710 N.am  107  THR107     -0.1937
     21  CA        13.1100    5.9260    9.5460 C.3   107  THR107      0.2028
     22  C         13.8200    6.8730   10.4960 C.2   107  THR107      0.2642
     23  O         14.7570    6.4780   11.1960 O.2   107  THR107     -0.2714
     24  CB        12.1030    5.0560   10.3310 C.3   107  THR107      0.1808
     25  OG1       11.3150    4.3020    9.3930 O.3   107  THR107     -0.2208
     26  CG2       11.1760    5.9110   11.2040 C.3   107  THR107      0.0379
     27  N         13.3990    8.1400   10.4660 N.am  108  ILE108     -0.1963
     28  CA        13.9910    9.1500   11.3320 C.3   108  ILE108      0.1727
     29  C         12.9890    9.6330   12.3970 C.2   108  ILE108      0.2617
     30  O         13.3760   10.3470   13.3100 O.2   108  ILE108     -0.2715
     31  CB        14.5220   10.3830   10.5190 C.3   108  ILE108      0.0290
     32  CG1       13.4120   10.9660    9.6350 C.3   108  ILE108      0.0022
     33  CG2       15.7690    9.9880    9.7130 C.3   108  ILE108      0.0023
     34  CD1       13.7740   12.3110    8.9700 C.3   108  ILE108      0.0001
     35  N         11.7110    9.2530   12.2900 N.am  109  GLY109     -0.1940
     36  CA        10.7080    9.6520   13.2600 C.3   109  GLY109      0.2014
     37  C          9.4110    8.9210   13.0550 C.2   109  GLY109      0.2638
     38  O          9.1330    8.4970   11.9300 O.2   109  GLY109     -0.2714
     39  N          8.6240    8.7780   14.1190 N.am  110  TRP110     -0.1973
     40  CA         7.3280    8.1120   14.0100 C.3   110  TRP110      0.1640
     41  C          6.4430    8.5100   15.1920 C.2   110  TRP110      0.2290
     42  O          6.9220    8.7160   16.2980 O.2   110  TRP110     -0.2864
     43  CB         7.5310    6.5710   14.0170 C.3   110  TRP110      0.0576
     44  CG         6.3070    5.7860   13.5730 C.ar  110  TRP110      0.0006
     45  CD1        6.0410    5.3780   12.3020 C.ar  110  TRP110      0.0946
     46  CD2        5.2030    5.3470   14.3800 C.ar  110  TRP110      0.0152
     47  NE1        4.8340    4.7030   12.2630 N.ar  110  TRP110     -0.2442
     48  CE2        4.3000    4.6700   13.5220 C.ar  110  TRP110      0.0810
     49  CE3        4.8850    5.4640   15.7440 C.ar  110  TRP110      0.0012
     50  CZ2        3.0950    4.1040   13.9820 C.ar  110  TRP110      0.0191
     51  CZ3        3.6780    4.8970   16.2060 C.ar  110  TRP110      0.0001
     52  CH2        2.8030    4.2240   15.3220 C.ar  110  TRP110      0.0015
     53  N         12.7460   19.8060   13.4850 N.3   138  VAL138     -0.1231
     54  CA        11.6330   19.8040   12.5390 C.3   138  VAL138      0.1692
     55  C         11.0550   18.3860   12.4240 C.2   138  VAL138      0.2592
     56  O          9.9110   18.2220   12.1080 O.2   138  VAL138     -0.2718
     57  CB        12.0570   20.4310   11.1620 C.3   138  VAL138      0.0266
     58  CG1       12.9950   19.5220   10.3520 C.3   138  VAL138      0.0020
     59  CG2       10.8110   20.7770   10.3410 C.3   138  VAL138      0.0020
     60  N         11.8710   17.3660   12.6770 N.am  139  THR139     -0.1953
     61  CA        11.3750   15.9790   12.6930 C.3   139  THR139      0.1897
     62  C         10.5010   15.8120   13.9520 C.2   139  THR139      0.2313
     63  O          9.3930   15.2470   13.8720 O.2   139  THR139     -0.2863
     64  CB        12.5670   15.0240   12.7460 C.3   139  THR139      0.1794
     65  OG1       13.3700   15.2490   11.5820 O.3   139  THR139     -0.2208
     66  CG2       12.0680   13.5930   12.7790 C.3   139  THR139      0.0378
     67  N          7.2780   17.5460   13.0560 N.3   142  HIS142     -0.1226
     68  CA         6.5090   16.7620   12.1050 C.3   142  HIS142      0.1752
     69  C          5.7490   15.6600   12.8620 C.2   142  HIS142      0.2595
     70  O          4.5610   15.4500   12.6120 O.2   142  HIS142     -0.2718
     71  CB         7.4820   16.1650   11.0710 C.3   142  HIS142      0.0759
     72  CG         6.8480   15.2570   10.0570 C.ar  142  HIS142      0.0818
     73  ND1        6.6070   15.6670    8.7600 N.ar  142  HIS142     -0.2268
     74  CD2        6.4590   13.9540   10.1270 C.ar  142  HIS142      0.1154
     75  CE1        6.0770   14.6640    8.0750 C.ar  142  HIS142      0.1986
     76  NE2        5.9770   13.6070    8.8760 N.ar  142  HIS142     -0.2212
     77  N          6.4170   14.9840   13.7970 N.am  143  GLU143     -0.1979
     78  CA         5.7390   13.9390   14.5300 C.3   143  GLU143      0.1602
     79  C          4.6640   14.5190   15.4470 C.2   143  GLU143      0.2287
     80  O          3.5890   13.9110   15.5900 O.2   143  GLU143     -0.2864
     81  CB         6.7420   13.0700   15.3120 C.3   143  GLU143      0.0415
     82  CG         7.8180   12.4100   14.4380 C.3   143  GLU143      0.1163
     83  CD         7.3150   11.7000   13.2120 C.2   143  GLU143      0.3649
     84  OE1        8.1100   11.6020   12.2340 O.co2 143  GLU143     -0.2457
     85  OE2        6.1680   11.2360   13.2070 O.co2 143  GLU143     -0.2457
     86  N          1.6710   15.0540   13.3240 N.3   146  HIS146     -0.1241
     87  CA         0.8520   13.8560   13.1880 C.3   146  HIS146      0.1621
     88  C          0.0130   13.6330   14.4410 C.2   146  HIS146      0.2264
     89  O         -1.1520   13.2820   14.3600 O.2   146  HIS146     -0.2867
     90  CB         1.7350   12.6240   13.0210 C.3   146  HIS146      0.0745
     91  CG         2.2570   12.4200   11.6380 C.ar  146  HIS146      0.0817
     92  ND1        1.4550   12.4970   10.5160 N.ar  146  HIS146     -0.2268
     93  CD2        3.4770   12.0380   11.2070 C.ar  146  HIS146      0.1154
     94  CE1        2.1670   12.1640    9.4520 C.ar  146  HIS146      0.1986
     95  NE2        3.3970   11.8760    9.8420 N.ar  146  HIS146     -0.2212
     96  N          0.3550   13.8870    5.8290 N.3   152  HIS152     -0.1241
     97  CA         1.2800   14.5890    4.9600 C.3   152  HIS152      0.1621
     98  C          0.5970   15.5570    3.9900 C.2   152  HIS152      0.2264
     99  O         -0.5320   15.3570    3.5410 O.2   152  HIS152     -0.2867
    100  CB         2.0790   13.5960    4.1300 C.3   152  HIS152      0.0745
    101  CG         2.9560   12.7350    4.9590 C.ar  152  HIS152      0.0817
    102  ND1        3.4830   11.5490    4.5000 N.ar  152  HIS152     -0.2268
    103  CD2        3.4520   12.9240    6.2080 C.ar  152  HIS152      0.1154
    104  CE1        4.2730   11.0440    5.4290 C.ar  152  HIS152      0.1986
    105  NE2        4.2760   11.8550    6.4780 N.ar  152  HIS152     -0.2212
    106  N          6.5890   21.6360    6.9950 N.3   164  ILE164     -0.1245
    107  CA         6.8490   20.6450    8.0470 C.3   164  ILE164      0.1561
    108  C          6.2660   19.2770    7.7930 C.2   164  ILE164      0.2260
    109  O          6.9590   18.2910    8.0290 O.2   164  ILE164     -0.2867
    110  CB         6.3970   21.2050    9.4190 C.3   164  ILE164      0.0252
    111  CG1        7.2890   22.4000    9.7930 C.3   164  ILE164      0.0019
    112  CG2        6.4540   20.1280   10.4910 C.3   164  ILE164      0.0019
    113  CD1        6.6250   23.2110   10.9100 C.3   164  ILE164      0.0001
    114  N          5.6740   17.8810    4.9170 N.3   166  SER166     -0.1202
    115  CA         5.9960   17.3000    3.6320 C.3   166  SER166      0.2020
    116  C          6.1870   15.7700    3.8450 C.2   166  SER166      0.2619
    117  O          6.6180   15.3070    4.9010 O.2   166  SER166     -0.2717
    118  CB         7.2800   17.9340    3.1000 C.3   166  SER166      0.2103
    119  OG         7.7350   17.2530    1.9300 O.3   166  SER166     -0.2182
    120  N          5.8870   14.9800    2.8210 N.am  167  ALA167     -0.1965
    121  CA         6.0210   13.5270    2.9680 C.3   167  ALA167      0.1728
    122  C          7.4390   13.0430    3.2590 C.2   167  ALA167      0.2616
    123  O          7.6270   11.9750    3.8650 O.2   167  ALA167     -0.2715
    124  CB         5.4800   12.8310    1.7090 C.3   167  ALA167      0.0334
    125  N          8.4270   13.8160    2.8080 N.am  168  VAL168     -0.1963
    126  CA         9.8430   13.5180    3.0080 C.3   168  VAL168      0.1727
    127  C         10.5640   14.8140    3.3860 C.2   168  VAL168      0.2616
    128  O         10.2880   15.8990    2.8620 O.2   168  VAL168     -0.2715
    129  CB        10.4780   12.9540    1.7040 C.3   168  VAL168      0.0290
    130  CG1       11.9230   12.4630    1.9790 C.3   168  VAL168      0.0023
    131  CG2        9.6200   11.8140    1.1640 C.3   168  VAL168      0.0023
    132  N         11.4710   14.6940    4.3410 N.am  169  ILE169     -0.1977
    133  CA        12.2760   15.8460    4.7790 C.3   169  ILE169      0.1596
    134  C         13.2660   16.1800    3.6490 C.2   169  ILE169      0.2287
    135  O         13.5460   15.3350    2.7860 O.2   169  ILE169     -0.2864
    136  CB        13.0690   15.4830    6.0780 C.3   169  ILE169      0.0276
    137  CG1       13.6380   16.7520    6.7470 C.3   169  ILE169      0.0022
    138  CG2       14.2310   14.4750    5.7380 C.3   169  ILE169      0.0022
    139  CD1       14.2590   16.4690    8.1760 C.3   169  ILE169      0.0001
    140  N         14.4000   22.1260    3.9180 N.3   173  GLN173     -0.1245
    141  CA        13.2530   22.0770    4.8080 C.3   173  GLN173      0.1566
    142  C         12.8660   23.4450    5.4170 C.2   173  GLN173      0.2260
    143  O         13.7220   24.1630    5.9790 O.2   173  GLN173     -0.2867
    144  CB        13.5510   21.0880    5.9320 C.3   173  GLN173      0.0367
    145  CG        12.3670   20.8030    6.8100 C.3   173  GLN173      0.0905
    146  CD        11.2850   20.1730    6.0480 C.2   173  GLN173      0.2608
    147  OE1       11.5260   19.2550    5.2300 O.2   173  GLN173     -0.2717
    148  NE2       10.0410   20.6620    6.2830 N.am  173  GLN173     -0.0878
@<TRIPOS>BOND
     1   131   129    1
     2   129   130    1
     3   129   126    1
     4   124   121    1
     5   119   118    1
     6   135   134    2
     7   125   126    1
     8   125   122   am
     9   120   121    1
    10   120   116   am
    11   128   127    2
    12   121   122    1
    13   126   127    1
    14   118   115    1
    15   122   123    2
    16   127   132   am
    17    99    98    2
    18   115   116    1
    19   115   114    1
    20   134   133    1
    21   116   117    2
    22   140   141    1
    23    98    97    1
    24    18    17    2
    25   100   101    1
    26   100    97    1
    27   132   133    1
    28   102   101   ar
    29   102   104   ar
    30   133   136    1
    31   141   142    1
    32   141   144    1
    33   101   103   ar
    34    97    96    1
    35    17    16    1
    36    17    19   am
    37   147   146    2
    38    16    13    1
    39   142   143    2
    40   104   105   ar
    41   138   136    1
    42   144   145    1
    43   146   148   am
    44   146   145    1
    45   136   137    1
    46   103   105   ar
    47     4     3    2
    48     3     2    1
    49     3    12   am
    50   137   139    1
    51     2     5    1
    52     2     1    1
    53     5     6    1
    54    13    12    1
    55    13    14    1
    56   106   107    1
    57     6     7    1
    58     7     8    1
    59    15    14    2
    60    14    20   am
    61   108   109    2
    62   108   107    1
    63   107   110    1
    64    75    73   ar
    65    75    76   ar
    66     8     9    2
    67    73    72   ar
    68    20    21    1
    69    76    74   ar
    70    34    32    1
    71    25    24    1
    72   110   111    1
    73   110   112    1
    74    94    95   ar
    75    94    92   ar
    76     9    10    1
    77     9    11    1
    78    21    24    1
    79    21    22    1
    80    32    31    1
    81    33    31    1
    82   111   113    1
    83    95    93   ar
    84    72    74   ar
    85    72    71    1
    86    24    26    1
    87    59    57    1
    88    58    57    1
    89    27    22   am
    90    27    28    1
    91    22    23    2
    92    92    91   ar
    93    31    28    1
    94    71    68    1
    95    57    54    1
    96    93    91   ar
    97    28    29    1
    98    65    64    1
    99    91    90    1
   100    38    37    2
   101    68    69    1
   102    68    67    1
   103    56    55    2
   104    84    83   ar
   105    47    45   ar
   106    47    48   ar
   107    35    29   am
   108    35    36    1
   109    45    44   ar
   110    29    30    2
   111    55    54    1
   112    55    60   am
   113    54    53    1
   114    70    69    2
   115    60    61    1
   116    61    64    1
   117    61    62    1
   118    64    66    1
   119    69    77   am
   120    90    87    1
   121    37    36    1
   122    37    39   am
   123    87    86    1
   124    87    88    1
   125    85    83   ar
   126    83    82    1
   127    48    50   ar
   128    48    46   ar
   129    44    43    1
   130    44    46   ar
   131    77    78    1
   132    63    62    2
   133    50    52   ar
   134    40    43    1
   135    40    39    1
   136    40    41    1
   137    89    88    2
   138    46    49   ar
   139    82    81    1
   140    78    81    1
   141    78    79    1
   142    41    42    2
   143    52    51   ar
   144    79    80    2
   145    49    51   ar
