@<TRIPOS>MOLECULE
tmp/1kukA00.pdb
 148 145 0 0 0
SMALL
GASTEIGER

@<TRIPOS>ATOM
      1  N         14.0480    0.9290    7.8810 N.3   105  ARG105     -0.1231
      2  CA        13.4260    1.6000    6.7460 C.3   105  ARG105      0.1694
      3  C         13.8130    3.0470    6.6030 C.2   105  ARG105      0.2592
      4  O         13.0600    3.8420    6.0480 O.2   105  ARG105     -0.2718
      5  CB        11.9190    1.4090    6.8550 C.3   105  ARG105      0.0321
      6  CG        11.5630   -0.0700    7.0050 C.3   105  ARG105      0.0489
      7  CD        10.3090   -0.4510    6.2540 C.3   105  ARG105      0.2205
      8  NE         9.2100    0.4820    6.4540 N.pl3 105  ARG105     -0.0865
      9  CZ         8.0110    0.3540    5.8900 C.cat 105  ARG105      0.5346
     10  NH1        7.7610   -0.6710    5.0870 N.pl3 105  ARG105      0.1354
     11  NH2        7.0570    1.2420    6.1330 N.pl3 105  ARG105      0.1354
     12  N         15.0120    3.3730    7.0730 N.am  106  ASN106     -0.1960
     13  CA        15.5690    4.7030    7.0070 C.3   106  ASN106      0.1819
     14  C         14.6420    5.6800    7.6820 C.2   106  ASN106      0.2622
     15  O         14.5060    6.8220    7.2520 O.2   106  ASN106     -0.2715
     16  CB        15.7880    5.1010    5.5510 C.3   106  ASN106      0.1195
     17  CG        16.9340    6.0250    5.3950 C.2   106  ASN106      0.2630
     18  OD1       17.8750    6.0010    6.1940 O.2   106  ASN106     -0.2716
     19  ND2       16.9050    6.8330    4.3370 N.am  106  ASN106     -0.0877
     20  N         14.0330    5.2290    8.7690 N.am  107  THR107     -0.1937
     21  CA        13.0780    6.0650    9.5160 C.3   107  THR107      0.2028
     22  C         13.7730    6.9990   10.4860 C.2   107  THR107      0.2642
     23  O         14.7050    6.5880   11.1970 O.2   107  THR107     -0.2714
     24  CB        12.0850    5.1750   10.2910 C.3   107  THR107      0.1808
     25  OG1       11.3430    4.3970    9.3400 O.3   107  THR107     -0.2208
     26  CG2       11.1160    5.9900   11.1630 C.3   107  THR107      0.0379
     27  N         13.3660    8.2750   10.4560 N.am  108  ILE108     -0.1963
     28  CA        13.9410    9.2850   11.3290 C.3   108  ILE108      0.1727
     29  C         12.9360    9.7710   12.3780 C.2   108  ILE108      0.2617
     30  O         13.3210   10.4690   13.2900 O.2   108  ILE108     -0.2715
     31  CB        14.4930   10.5090   10.5310 C.3   108  ILE108      0.0290
     32  CG1       13.4000   11.1560    9.6850 C.3   108  ILE108      0.0022
     33  CG2       15.6930   10.0520    9.6340 C.3   108  ILE108      0.0023
     34  CD1       13.8980   12.4970    9.0350 C.3   108  ILE108      0.0001
     35  N         11.6690    9.3760   12.2490 N.am  109  GLY109     -0.1940
     36  CA        10.6470    9.7800   13.2140 C.3   109  GLY109      0.2014
     37  C          9.3520    9.0390   12.9940 C.2   109  GLY109      0.2638
     38  O          9.0740    8.6200   11.8750 O.2   109  GLY109     -0.2714
     39  N          8.5250    8.9550   14.0240 N.am  110  TRP110     -0.1973
     40  CA         7.2590    8.2390   13.9090 C.3   110  TRP110      0.1640
     41  C          6.3740    8.6540   15.0770 C.2   110  TRP110      0.2290
     42  O          6.8610    8.8670   16.1850 O.2   110  TRP110     -0.2864
     43  CB         7.5200    6.7130   13.9570 C.3   110  TRP110      0.0576
     44  CG         6.3290    5.9000   13.5290 C.ar  110  TRP110      0.0006
     45  CD1        6.0710    5.4560   12.2600 C.ar  110  TRP110      0.0946
     46  CD2        5.2340    5.4710   14.3380 C.ar  110  TRP110      0.0152
     47  NE1        4.8780    4.7740   12.2380 N.ar  110  TRP110     -0.2442
     48  CE2        4.3430    4.7650   13.4970 C.ar  110  TRP110      0.0810
     49  CE3        4.9100    5.6170   15.6950 C.ar  110  TRP110      0.0012
     50  CZ2        3.1610    4.2040   13.9730 C.ar  110  TRP110      0.0191
     51  CZ3        3.7250    5.0620   16.1690 C.ar  110  TRP110      0.0001
     52  CH2        2.8680    4.3580   15.3070 C.ar  110  TRP110      0.0015
     53  N         12.7710   19.9940   13.4510 N.3   138  VAL138     -0.1231
     54  CA        11.6450   19.9870   12.5300 C.3   138  VAL138      0.1692
     55  C         11.0640   18.5680   12.4180 C.2   138  VAL138      0.2592
     56  O          9.8860   18.4040   12.0740 O.2   138  VAL138     -0.2718
     57  CB        12.0710   20.6050   11.1480 C.3   138  VAL138      0.0266
     58  CG1       13.0180   19.6920   10.3880 C.3   138  VAL138      0.0020
     59  CG2       10.8390   20.9720   10.3350 C.3   138  VAL138      0.0020
     60  N         11.8740   17.5470   12.6970 N.am  139  THR139     -0.1953
     61  CA        11.3920   16.1620   12.6760 C.3   139  THR139      0.1897
     62  C         10.4670   15.9830   13.9010 C.2   139  THR139      0.2313
     63  O          9.3720   15.4130   13.8000 O.2   139  THR139     -0.2863
     64  CB        12.5760   15.1810   12.7390 C.3   139  THR139      0.1794
     65  OG1       13.3970   15.4110   11.5790 O.3   139  THR139     -0.2208
     66  CG2       12.0720   13.7500   12.7320 C.3   139  THR139      0.0378
     67  N          7.2720   17.7170   13.0050 N.3   142  HIS142     -0.1226
     68  CA         6.5130   16.9290   12.0260 C.3   142  HIS142      0.1752
     69  C          5.7510   15.8400   12.7820 C.2   142  HIS142      0.2595
     70  O          4.5510   15.6240   12.5280 O.2   142  HIS142     -0.2718
     71  CB         7.5000   16.3240   11.0280 C.3   142  HIS142      0.0759
     72  CG         6.8700   15.4120   10.0150 C.ar  142  HIS142      0.0818
     73  ND1        6.6250   15.8110    8.7160 N.ar  142  HIS142     -0.2268
     74  CD2        6.4880   14.1110   10.0900 C.ar  142  HIS142      0.1154
     75  CE1        6.1020   14.8000    8.0360 C.ar  142  HIS142      0.1986
     76  NE2        6.0150   13.7450    8.8400 N.ar  142  HIS142     -0.2212
     77  N          6.4150   15.1430   13.7210 N.am  143  GLU143     -0.1979
     78  CA         5.7050   14.1000   14.4710 C.3   143  GLU143      0.1602
     79  C          4.6260   14.6900   15.3980 C.2   143  GLU143      0.2287
     80  O          3.5200   14.1440   15.5290 O.2   143  GLU143     -0.2864
     81  CB         6.7100   13.2230   15.2370 C.3   143  GLU143      0.0415
     82  CG         7.8110   12.5780   14.3540 C.3   143  GLU143      0.1163
     83  CD         7.3140   11.8230   13.1340 C.2   143  GLU143      0.3649
     84  OE1        8.1210   11.7010   12.1630 O.co2 143  GLU143     -0.2457
     85  OE2        6.1430   11.3820   13.1210 O.co2 143  GLU143     -0.2457
     86  N          1.6460   15.2640   13.2400 N.3   146  HIS146     -0.1241
     87  CA         0.8240   14.0530   13.0800 C.3   146  HIS146      0.1621
     88  C         -0.0080   13.8270   14.3210 C.2   146  HIS146      0.2264
     89  O         -1.1930   13.5060   14.2180 O.2   146  HIS146     -0.2867
     90  CB         1.7150   12.8100   12.8810 C.3   146  HIS146      0.0745
     91  CG         2.2410   12.6360   11.4870 C.ar  146  HIS146      0.0817
     92  ND1        1.4400   12.6800   10.3630 N.ar  146  HIS146     -0.2268
     93  CD2        3.4770   12.3050   11.0450 C.ar  146  HIS146      0.1154
     94  CE1        2.1570   12.3690    9.2950 C.ar  146  HIS146      0.1986
     95  NE2        3.4010   12.1290    9.6790 N.ar  146  HIS146     -0.2212
     96  N          0.3520   14.0940    5.6850 N.3   152  HIS152     -0.1241
     97  CA         1.3230   14.7720    4.8480 C.3   152  HIS152      0.1621
     98  C          0.6820   15.7420    3.8660 C.2   152  HIS152      0.2264
     99  O         -0.4700   15.5800    3.4260 O.2   152  HIS152     -0.2867
    100  CB         2.1290   13.7740    4.0210 C.3   152  HIS152      0.0745
    101  CG         3.0030   12.9080    4.8510 C.ar  152  HIS152      0.0817
    102  ND1        3.5530   11.7290    4.3910 N.ar  152  HIS152     -0.2268
    103  CD2        3.4680   13.0880    6.1070 C.ar  152  HIS152      0.1154
    104  CE1        4.3270   11.2280    5.3380 C.ar  152  HIS152      0.1986
    105  NE2        4.2940   12.0320    6.3920 N.ar  152  HIS152     -0.2212
    106  N          6.6430   21.8330    6.9030 N.3   164  ILE164     -0.1245
    107  CA         6.8720   20.8340    7.9550 C.3   164  ILE164      0.1561
    108  C          6.2800   19.4570    7.6900 C.2   164  ILE164      0.2260
    109  O          6.9830   18.4640    7.8920 O.2   164  ILE164     -0.2867
    110  CB         6.3830   21.3940    9.3190 C.3   164  ILE164      0.0252
    111  CG1        7.2600   22.6200    9.6990 C.3   164  ILE164      0.0019
    112  CG2        6.4530   20.3210   10.4350 C.3   164  ILE164      0.0019
    113  CD1        6.6910   23.4220   10.8540 C.3   164  ILE164      0.0001
    114  N          5.7540   18.0270    4.8300 N.3   166  SER166     -0.1202
    115  CA         6.1180   17.4550    3.5360 C.3   166  SER166      0.2020
    116  C          6.3040   15.9320    3.7460 C.2   166  SER166      0.2619
    117  O          6.7450   15.4590    4.8090 O.2   166  SER166     -0.2717
    118  CB         7.3980   18.1130    3.0200 C.3   166  SER166      0.2103
    119  OG         7.8530   17.4240    1.8800 O.3   166  SER166     -0.2182
    120  N          5.9840   15.1440    2.7270 N.am  167  ALA167     -0.1965
    121  CA         6.0920   13.6930    2.8500 C.3   167  ALA167      0.1728
    122  C          7.5140   13.2340    3.1740 C.2   167  ALA167      0.2616
    123  O          7.6970   12.2060    3.8100 O.2   167  ALA167     -0.2715
    124  CB         5.5990   13.0380    1.5390 C.3   167  ALA167      0.0334
    125  N          8.5060   13.9970    2.7330 N.am  168  VAL168     -0.1963
    126  CA         9.9040   13.6750    2.9820 C.3   168  VAL168      0.1727
    127  C         10.6430   14.9620    3.3640 C.2   168  VAL168      0.2616
    128  O         10.3830   16.0200    2.8190 O.2   168  VAL168     -0.2715
    129  CB        10.5570   13.0870    1.7220 C.3   168  VAL168      0.0290
    130  CG1       11.9450   12.5500    2.0630 C.3   168  VAL168      0.0023
    131  CG2        9.6300   12.0240    1.1140 C.3   168  VAL168      0.0023
    132  N         11.5350   14.8580    4.3260 N.am  169  ILE169     -0.1977
    133  CA        12.3470   15.9960    4.7680 C.3   169  ILE169      0.1596
    134  C         13.3550   16.3150    3.6510 C.2   169  ILE169      0.2287
    135  O         13.6280   15.4700    2.8010 O.2   169  ILE169     -0.2864
    136  CB        13.0990   15.5970    6.0770 C.3   169  ILE169      0.0276
    137  CG1       13.6810   16.8440    6.7660 C.3   169  ILE169      0.0022
    138  CG2       14.2650   14.6440    5.7590 C.3   169  ILE169      0.0022
    139  CD1       14.3090   16.5170    8.1380 C.3   169  ILE169      0.0001
    140  N         14.4820   22.2260    3.9940 N.3   173  GLN173     -0.1245
    141  CA        13.2870   22.1940    4.8520 C.3   173  GLN173      0.1566
    142  C         12.9210   23.5500    5.4330 C.2   173  GLN173      0.2260
    143  O         13.7560   24.2600    6.0170 O.2   173  GLN173     -0.2867
    144  CB        13.5090   21.1930    5.9980 C.3   173  GLN173      0.0367
    145  CG        12.2620   20.8610    6.7560 C.3   173  GLN173      0.0905
    146  CD        11.2870   20.1550    5.8770 C.2   173  GLN173      0.2608
    147  OE1       11.6590   19.3080    5.0720 O.2   173  GLN173     -0.2717
    148  NE2        9.9980   20.5120    6.0200 N.am  173  GLN173     -0.0878
@<TRIPOS>BOND
     1   131   129    1
     2   124   121    1
     3   129   130    1
     4   129   126    1
     5   119   118    1
     6   120   121    1
     7   120   116   am
     8   125   126    1
     9   125   122   am
    10   135   134    2
    11   128   127    2
    12   121   122    1
    13   126   127    1
    14   118   115    1
    15   122   123    2
    16   127   132   am
    17    99    98    2
    18   115   116    1
    19   115   114    1
    20   134   133    1
    21   116   117    2
    22    98    97    1
    23   140   141    1
    24   100    97    1
    25   100   101    1
    26   132   133    1
    27    19    17   am
    28   102   101   ar
    29   102   104   ar
    30   133   136    1
    31    97    96    1
    32   101   103   ar
    33   141   142    1
    34   141   144    1
    35   147   146    2
    36    10     9    1
    37   104   105   ar
    38    17    16    1
    39    17    18    2
    40   142   143    2
    41    16    13    1
    42   138   136    1
    43   146   148   am
    44   146   145    1
    45     9    11    1
    46     9     8    2
    47   144   145    1
    48     4     3    2
    49   136   137    1
    50   103   105   ar
    51     7     8    1
    52     7     6    1
    53     3     2    1
    54     3    12   am
    55     2     5    1
    56     2     1    1
    57   137   139    1
    58     5     6    1
    59   106   107    1
    60    13    12    1
    61    13    14    1
    62    15    14    2
    63    14    20   am
    64   108   109    2
    65   108   107    1
    66   107   110    1
    67    75    73   ar
    68    75    76   ar
    69    73    72   ar
    70    20    21    1
    71    76    74   ar
    72    34    32    1
    73    94    95   ar
    74    94    92   ar
    75   110   111    1
    76   110   112    1
    77    25    24    1
    78    21    24    1
    79    21    22    1
    80    33    31    1
    81    95    93   ar
    82    32    31    1
    83   111   113    1
    84    72    74   ar
    85    72    71    1
    86    24    26    1
    87    59    57    1
    88    92    91   ar
    89    58    57    1
    90    27    22   am
    91    27    28    1
    92    22    23    2
    93    31    28    1
    94    71    68    1
    95    93    91   ar
    96    57    54    1
    97    28    29    1
    98    91    90    1
    99    65    64    1
   100    38    37    2
   101    68    69    1
   102    68    67    1
   103    56    55    2
   104    84    83   ar
   105    47    45   ar
   106    47    48   ar
   107    35    29   am
   108    35    36    1
   109    45    44   ar
   110    29    30    2
   111    55    54    1
   112    55    60   am
   113    70    69    2
   114    54    53    1
   115    61    60    1
   116    61    64    1
   117    61    62    1
   118    66    64    1
   119    69    77   am
   120    90    87    1
   121    37    36    1
   122    37    39   am
   123    87    86    1
   124    87    88    1
   125    85    83   ar
   126    83    82    1
   127    48    50   ar
   128    48    46   ar
   129    44    43    1
   130    44    46   ar
   131    77    78    1
   132    63    62    2
   133    40    43    1
   134    40    39    1
   135    40    41    1
   136    50    52   ar
   137    89    88    2
   138    46    49   ar
   139    82    81    1
   140    78    81    1
   141    78    79    1
   142    41    42    2
   143    52    51   ar
   144    79    80    2
   145    49    51   ar
