@<TRIPOS>MOLECULE
tmp/1kv3D00.pdb
 132 130 0 0 0
SMALL
GASTEIGER

@<TRIPOS>ATOM
      1  N         11.2210  136.8900  182.1700 N.3   137  LYS137     -0.1231
      2  CA        11.6750  135.5710  181.7610 C.3   137  LYS137      0.1693
      3  C         10.9190  134.3870  182.3420 C.2   137  LYS137      0.2592
      4  O         11.1640  133.2410  181.9550 O.2   137  LYS137     -0.2718
      5  CB        13.1880  135.4770  181.9600 C.3   137  LYS137      0.0285
      6  CG        13.9290  136.0570  180.7870 C.3   137  LYS137      0.0035
      7  CD        15.4270  136.0830  180.9620 C.3   137  LYS137      0.0206
      8  CE        16.1280  136.2630  179.6130 C.3   137  LYS137      0.1093
      9  NZ        15.9340  135.0410  178.7570 N.3   137  LYS137     -0.1314
     10  N          9.9500  134.6770  183.2010 N.am  138  PHE138     -0.1976
     11  CA         9.1230  133.6560  183.8420 C.3   138  PHE138      0.1639
     12  C          7.8490  134.3210  184.3260 C.2   138  PHE138      0.2290
     13  O          7.7140  134.6850  185.4790 O.2   138  PHE138     -0.2864
     14  CB         9.8590  133.0250  185.0040 C.3   138  PHE138      0.0560
     15  CG         9.2480  131.7680  185.4770 C.ar  138  PHE138     -0.0200
     16  CD1        9.4250  130.5960  184.7650 C.ar  138  PHE138     -0.0042
     17  CD2        8.4560  131.7550  186.6180 C.ar  138  PHE138     -0.0042
     18  CE1        8.8150  129.4310  185.1730 C.ar  138  PHE138     -0.0003
     19  CE2        7.8350  130.5760  187.0460 C.ar  138  PHE138     -0.0003
     20  CZ         8.0140  129.4160  186.3150 C.ar  138  PHE138     -0.0000
     21  N         25.3470  136.1820  179.9690 N.3   440  ARG440     -0.1231
     22  CA        24.0100  136.2760  180.4670 C.3   440  ARG440      0.1694
     23  C         23.8180  135.3160  181.5980 C.2   440  ARG440      0.2592
     24  O         24.6350  134.4290  181.8160 O.2   440  ARG440     -0.2718
     25  CB        23.0070  136.0030  179.3710 C.3   440  ARG440      0.0321
     26  CG        22.9450  134.5830  178.8950 C.3   440  ARG440      0.0489
     27  CD        22.2260  134.5710  177.5880 C.3   440  ARG440      0.2205
     28  NE        22.6460  133.4140  176.8230 N.pl3 440  ARG440     -0.0865
     29  CZ        21.9770  132.2780  176.8150 C.cat 440  ARG440      0.5346
     30  NH1       20.8440  132.1580  177.5210 N.pl3 440  ARG440      0.1354
     31  NH2       22.4900  131.2450  176.1710 N.pl3 440  ARG440      0.1354
     32  N         22.7550  135.5450  182.3500 N.am  441  ILE441     -0.1966
     33  CA        22.4350  134.6950  183.4680 C.3   441  ILE441      0.1727
     34  C         21.5550  133.5720  182.9600 C.2   441  ILE441      0.2616
     35  O         20.5880  133.8160  182.2540 O.2   441  ILE441     -0.2715
     36  CB        21.6960  135.5060  184.5910 C.3   441  ILE441      0.0290
     37  CG1       22.5610  136.6820  185.0550 C.3   441  ILE441      0.0022
     38  CG2       21.3790  134.6370  185.7830 C.3   441  ILE441      0.0023
     39  CD1       23.9130  136.2720  185.5060 C.3   441  ILE441      0.0001
     40  N         21.8730  132.3450  183.3580 N.am  442  ARG442     -0.1963
     41  CA        21.1150  131.1660  182.9660 C.3   442  ARG442      0.1729
     42  C         20.5800  130.5350  184.2060 C.2   442  ARG442      0.2616
     43  O         21.2460  130.6210  185.2150 O.2   442  ARG442     -0.2715
     44  CB        22.0460  130.1830  182.3170 C.3   442  ARG442      0.0348
     45  CG        21.6770  129.8210  180.9230 C.3   442  ARG442      0.0492
     46  CD        22.6200  130.4330  179.9320 C.3   442  ARG442      0.2205
     47  NE        23.0570  129.4590  178.9290 N.pl3 442  ARG442     -0.0865
     48  CZ        22.2490  128.7780  178.1170 C.cat 442  ARG442      0.5346
     49  NH1       20.9250  128.9240  178.1660 N.pl3 442  ARG442      0.1354
     50  NH2       22.7810  127.9880  177.1980 N.pl3 442  ARG442      0.1354
     51  N         19.4150  129.8810  184.1450 N.am  443  VAL443     -0.1963
     52  CA        18.8740  129.2460  185.3440 C.3   443  VAL443      0.1727
     53  C         18.7770  127.7230  185.3330 C.2   443  VAL443      0.2617
     54  O         18.6520  127.0870  186.3910 O.2   443  VAL443     -0.2715
     55  CB        17.5420  129.8320  185.7940 C.3   443  VAL443      0.0290
     56  CG1       17.5480  131.3150  185.6530 C.3   443  VAL443      0.0023
     57  CG2       16.4360  129.2370  185.0630 C.3   443  VAL443      0.0023
     58  N         18.8330  127.1160  184.1610 N.am  444  GLY444     -0.1940
     59  CA        18.7700  125.6680  184.1350 C.3   444  GLY444      0.2014
     60  C         17.3780  125.1040  184.2960 C.2   444  GLY444      0.2639
     61  O         16.8980  124.4440  183.3710 O.2   444  GLY444     -0.2714
     62  N         16.7800  125.2480  185.4830 N.am  445  GLN445     -0.1963
     63  CA        15.4080  124.7770  185.7130 C.3   445  GLN445      0.1733
     64  C         14.7180  125.5790  186.7930 C.2   445  GLN445      0.2617
     65  O         15.3690  126.3000  187.5430 O.2   445  GLN445     -0.2715
     66  CB        15.3170  123.2900  186.0950 C.3   445  GLN445      0.0408
     67  CG        16.5880  122.4910  186.0330 C.3   445  GLN445      0.0908
     68  CD        17.4020  122.6410  187.2850 C.2   445  GLN445      0.2608
     69  OE1       17.2020  121.9030  188.2640 O.2   445  GLN445     -0.2717
     70  NE2       18.3240  123.6090  187.2780 N.am  445  GLN445     -0.0878
     71  N         13.3950  125.4290  186.8660 N.am  446  SER446     -0.1936
     72  CA        12.5550  126.0850  187.8540 C.3   446  SER446      0.2055
     73  C         13.0780  125.8370  189.3030 C.2   446  SER446      0.2642
     74  O         13.6730  124.7760  189.5740 O.2   446  SER446     -0.2714
     75  CB        11.1220  125.5360  187.6570 C.3   446  SER446      0.2130
     76  OG        10.1580  126.0180  188.5860 O.3   446  SER446     -0.2179
     77  N         12.9800  126.8490  190.1770 N.am  447  MET447     -0.1976
     78  CA        13.3850  126.6840  191.5840 C.3   447  MET447      0.1605
     79  C         12.1920  127.0340  192.3920 C.2   447  MET447      0.2287
     80  O         11.4140  127.9070  192.0070 O.2   447  MET447     -0.2864
     81  CB        14.4890  127.6260  192.0710 C.3   447  MET447      0.0413
     82  CG        15.2400  128.3580  191.0420 C.3   447  MET447      0.0598
     83  SD        14.3660  129.7190  190.3570 S.3   447  MET447     -0.1393
     84  CE        15.5600  130.0580  189.0890 C.3   447  MET447      0.0692
     85  N         19.5430  139.4810  185.8250 N.3   544  ARG544     -0.1231
     86  CA        18.3270  138.7090  185.5590 C.3   544  ARG544      0.1694
     87  C         17.5170  138.6070  186.8330 C.2   544  ARG544      0.2592
     88  O         18.0920  138.4820  187.9110 O.2   544  ARG544     -0.2718
     89  CB        18.6920  137.2990  185.0760 C.3   544  ARG544      0.0321
     90  CG        17.5520  136.4760  184.4670 C.3   544  ARG544      0.0489
     91  CD        17.9520  135.0720  184.5800 C.3   544  ARG544      0.2205
     92  NE        17.6830  134.2450  183.4170 N.pl3 544  ARG544     -0.0865
     93  CZ        16.5350  133.6370  183.1990 C.cat 544  ARG544      0.5346
     94  NH1       15.5140  133.7860  184.0370 N.pl3 544  ARG544      0.1354
     95  NH2       16.4880  132.7570  182.2500 N.pl3 544  ARG544      0.1354
     96  N         16.2030  138.7070  186.7150 N.am  545  ASP545     -0.1960
     97  CA        15.3320  138.6110  187.8690 C.3   545  ASP545      0.1840
     98  C         14.6790  137.2380  187.9280 C.2   545  ASP545      0.2622
     99  O         13.9480  136.8360  187.0250 O.2   545  ASP545     -0.2715
    100  CB        14.2720  139.7070  187.8350 C.3   545  ASP545      0.1450
    101  CG        14.8840  141.1190  187.9060 C.2   545  ASP545      0.3671
    102  OD1       14.8160  141.8840  186.9160 O.co2 545  ASP545     -0.2456
    103  OD2       15.4580  141.4600  188.9570 O.co2 545  ASP545     -0.2456
    104  N         15.0070  136.4920  188.9640 N.am  546  LEU546     -0.1963
    105  CA        14.4830  135.1890  189.1650 C.3   546  LEU546      0.1728
    106  C         13.1800  135.2320  189.9320 C.2   546  LEU546      0.2616
    107  O         13.0230  136.0310  190.8340 O.2   546  LEU546     -0.2715
    108  CB        15.4810  134.4120  189.9800 C.3   546  LEU546      0.0311
    109  CG        16.5980  133.6760  189.2850 C.3   546  LEU546      0.0022
    110  CD1       17.2030  134.5220  188.2070 C.3   546  LEU546      0.0001
    111  CD2       17.6180  133.3070  190.3540 C.3   546  LEU546      0.0001
    112  N         12.2560  134.3370  189.5990 N.am  547  TYR547     -0.1974
    113  CA        11.0000  134.2260  190.3350 C.3   547  TYR547      0.1639
    114  C         10.9980  132.8660  190.9750 C.2   547  TYR547      0.2290
    115  O         11.1100  131.8750  190.2640 O.2   547  TYR547     -0.2864
    116  CB         9.7960  134.2990  189.4070 C.3   547  TYR547      0.0560
    117  CG         8.5260  133.9790  190.1300 C.ar  547  TYR547     -0.0198
    118  CD1        7.9370  134.9100  190.9420 C.ar  547  TYR547     -0.0009
    119  CD2        7.9250  132.7440  190.0250 C.ar  547  TYR547     -0.0009
    120  CE1        6.7790  134.6370  191.6280 C.ar  547  TYR547      0.0417
    121  CE2        6.7640  132.4700  190.7130 C.ar  547  TYR547      0.0417
    122  CZ         6.2010  133.4440  191.5160 C.ar  547  TYR547      0.1957
    123  OH         5.0420  133.2590  192.2170 O.3   547  TYR547     -0.2866
    124  N          9.2490  129.8090  192.6270 N.3   549  GLU549     -0.1245
    125  CA         7.9180  129.2350  192.5980 C.3   549  GLU549      0.1567
    126  C          7.3150  128.8340  193.9330 C.2   549  GLU549      0.2260
    127  O          7.9860  128.2610  194.7770 O.2   549  GLU549     -0.2867
    128  CB         7.9550  128.0450  191.6790 C.3   549  GLU549      0.0388
    129  CG         6.6140  127.6350  191.1700 C.3   549  GLU549      0.1160
    130  CD         6.3160  128.1970  189.8100 C.2   549  GLU549      0.3649
    131  OE1        5.3180  128.9200  189.6980 O.co2 549  GLU549     -0.2457
    132  OE2        7.0650  127.8840  188.8660 O.co2 549  GLU549     -0.2457
@<TRIPOS>BOND
     1    31    29    1
     2    29    28    2
     3    29    30    1
     4    28    27    1
     5    50    48    1
     6    27    26    1
     7    48    49    1
     8    48    47    2
     9     9     8    1
    10    26    25    1
    11    47    46    1
    12    25    22    1
    13     8     7    1
    14    46    45    1
    15    21    22    1
    16    22    23    1
    17     6     7    1
    18     6     5    1
    19    45    44    1
    20    23    24    2
    21    23    32   am
    22     2     5    1
    23     2     1    1
    24     2     3    1
    25     4     3    2
    26    95    93    1
    27    35    34    2
    28    44    41    1
    29     3    10   am
    30    32    33    1
    31    34    40   am
    32    34    33    1
    33    41    40    1
    34    41    42    1
    35    93    92    2
    36    93    94    1
    37    10    11    1
    38    61    60    2
    39    92    91    1
    40    33    36    1
    41    11    12    1
    42    11    14    1
    43    59    58    1
    44    59    60    1
    45    51    42   am
    46    51    52    1
    47    58    53   am
    48    42    43    2
    49    60    62   am
    50    12    13    2
    51    90    91    1
    52    90    89    1
    53    36    37    1
    54    36    38    1
    55    16    18   ar
    56    16    15   ar
    57    14    15    1
    58    37    39    1
    59    57    55    1
    60    89    86    1
    61    18    20   ar
    62    53    52    1
    63    53    54    2
    64    52    55    1
    65    15    17   ar
    66    62    63    1
    67    86    85    1
    68    86    87    1
    69    56    55    1
    70    63    66    1
    71    63    64    1
    72    67    66    1
    73    67    68    1
    74    20    19   ar
    75    17    19   ar
    76    96    87   am
    77    96    97    1
    78    64    71   am
    79    64    65    2
    80    87    88    2
    81    71    72    1
    82   102   101   ar
    83    99    98    2
    84    70    68   am
    85    68    69    2
    86    75    72    1
    87    75    76    1
    88   100    97    1
    89   100   101    1
    90    72    73    1
    91    97    98    1
    92   101   103   ar
    93    98   104   am
    94   110   109    1
    95   132   130   ar
    96   104   105    1
    97    84    83    1
    98   105   106    1
    99   105   108    1
   100   109   108    1
   101   109   111    1
   102    73    74    2
   103    73    77   am
   104   116   117    1
   105   116   113    1
   106   112   106   am
   107   112   113    1
   108   131   130   ar
   109   130   129    1
   110   106   107    2
   111   119   117   ar
   112   119   121   ar
   113   117   118   ar
   114    77    78    1
   115   115   114    2
   116   113   114    1
   117    83    82    1
   118   121   122   ar
   119   118   120   ar
   120    82    81    1
   121   129   128    1
   122   122   120   ar
   123   122   123    1
   124    78    81    1
   125    78    79    1
   126   128   125    1
   127    80    79    2
   128   125   124    1
   129   125   126    1
   130   126   127    2
