@<TRIPOS>MOLECULE
tmp/1kv6B00.pdb
 111 103 0 0 0
SMALL
GASTEIGER

@<TRIPOS>ATOM
      1  N          3.4360   56.6820  -16.4740 N.3    43  VAL43      -0.1245
      2  CA         2.5740   56.4370  -17.6450 C.3    43  VAL43       0.1561
      3  C          3.1910   55.3300  -18.4990 C.2    43  VAL43       0.2260
      4  O          2.5000   54.4970  -19.0970 O.2    43  VAL43      -0.2867
      5  CB         2.4250   57.7110  -18.5120 C.3    43  VAL43       0.0252
      6  CG1        1.3710   57.4890  -19.6140 C.3    43  VAL43       0.0019
      7  CG2        2.0550   58.8860  -17.6180 C.3    43  VAL43       0.0019
      8  N          2.3730   52.0930  -16.6290 N.3    46  ILE46      -0.1245
      9  CA         0.9970   51.6320  -16.7790 C.3    46  ILE46       0.1561
     10  C          0.8070   50.9670  -18.1510 C.2    46  ILE46       0.2260
     11  O         -0.0800   50.1210  -18.3330 O.2    46  ILE46      -0.2867
     12  CB         0.0390   52.7980  -16.6520 C.3    46  ILE46       0.0252
     13  CG1        0.2680   53.4800  -15.3120 C.3    46  ILE46       0.0019
     14  CG2       -1.3850   52.3240  -16.7860 C.3    46  ILE46       0.0019
     15  CD1       -0.6740   54.6390  -15.0350 C.3    46  ILE46       0.0001
     16  N          0.2400   46.3930  -18.8360 N.3    50  LYS50      -0.1245
     17  CA        -0.7520   45.7300  -19.6670 C.3    50  LYS50       0.1561
     18  C         -0.1770   44.5690  -20.4600 C.2    50  LYS50       0.2260
     19  O         -0.9030   43.6330  -20.8040 O.2    50  LYS50      -0.2867
     20  CB        -1.4390   46.7460  -20.5750 C.3    50  LYS50       0.0271
     21  CG        -2.1200   47.8570  -19.7510 C.3    50  LYS50       0.0035
     22  CD        -3.3200   48.5240  -20.4580 C.3    50  LYS50       0.0206
     23  CE        -4.4320   47.5050  -20.8820 C.3    50  LYS50       0.1093
     24  NZ        -5.0430   46.6700  -19.7700 N.3    50  LYS50      -0.1314
     25  N         -1.8710   39.9610  -16.7390 N.3    55  PHE55      -0.1241
     26  CA        -2.3510   41.1020  -15.9680 C.3    55  PHE55       0.1605
     27  C         -3.6030   41.7220  -16.5810 C.2    55  PHE55       0.2264
     28  O         -4.3950   42.3460  -15.8820 O.2    55  PHE55      -0.2867
     29  CB        -1.2580   42.1530  -15.8670 C.3    55  PHE55       0.0534
     30  CG        -1.6530   43.4100  -15.1180 C.ar   55  PHE55      -0.0203
     31  CD1       -1.2470   43.6070  -13.8010 C.ar   55  PHE55      -0.0042
     32  CD2       -2.2960   44.4550  -15.7730 C.ar   55  PHE55      -0.0042
     33  CE1       -1.4550   44.8300  -13.1670 C.ar   55  PHE55      -0.0003
     34  CE2       -2.5120   45.6920  -15.1420 C.ar   55  PHE55      -0.0003
     35  CZ        -2.0930   45.8850  -13.8450 C.ar   55  PHE55      -0.0000
     36  N        -10.4020   46.0510  -14.1450 N.3    60  LEU60      -0.1245
     37  CA        -9.8130   47.3880  -14.0970 C.3    60  LEU60       0.1561
     38  C         -9.4950   47.7470  -12.6510 C.2    60  LEU60       0.2260
     39  O         -8.5590   48.4970  -12.3650 O.2    60  LEU60      -0.2867
     40  CB       -10.7900   48.4220  -14.6630 C.3    60  LEU60       0.0270
     41  CG       -11.5510   48.0670  -15.9580 C.3    60  LEU60       0.0019
     42  CD1      -12.8560   48.9220  -16.0530 C.3    60  LEU60       0.0001
     43  CD2      -10.6220   48.2590  -17.1960 C.3    60  LEU60       0.0001
     44  N         -6.4490   45.5330  -11.3160 N.3    63  GLN63      -0.1231
     45  CA        -5.3120   46.1240  -11.9890 C.3    63  GLN63       0.1698
     46  C         -4.8590   47.3960  -11.3140 C.2    63  GLN63       0.2592
     47  O         -3.6630   47.5950  -11.1370 O.2    63  GLN63      -0.2718
     48  CB        -5.6560   46.4020  -13.4420 C.3    63  GLN63       0.0381
     49  CG        -5.6440   45.1550  -14.2890 C.3    63  GLN63       0.0905
     50  CD        -6.0300   45.4300  -15.7240 C.2    63  GLN63       0.2608
     51  OE1       -5.6270   46.4410  -16.3070 O.2    63  GLN63      -0.2717
     52  NE2       -6.8040   44.5230  -16.3100 N.am   63  GLN63      -0.0878
     53  N         -5.8080   48.2530  -10.9380 N.am   64  MET64      -0.1979
     54  CA        -5.4850   49.5090  -10.2670 C.3    64  MET64       0.1605
     55  C         -4.9670   49.2740   -8.8550 C.2    64  MET64       0.2287
     56  O         -4.0450   49.9590   -8.4070 O.2    64  MET64      -0.2864
     57  CB        -6.7040   50.4230  -10.2040 C.3    64  MET64       0.0413
     58  CG        -7.0690   51.0750  -11.5150 C.3    64  MET64       0.0598
     59  SD        -8.4390   52.2560  -11.3260 S.3    64  MET64      -0.1393
     60  CE        -9.8480   51.0950  -11.2480 C.3    64  MET64       0.0692
     61  N         -1.3360   47.9790   -9.2630 N.3    67  LEU67      -0.1231
     62  CA        -0.5040   49.0980   -9.7050 C.3    67  LEU67       0.1693
     63  C         -0.3100   50.2200   -8.6890 C.2    67  LEU67       0.2591
     64  O          0.7870   50.7710   -8.5670 O.2    67  LEU67      -0.2718
     65  CB        -1.0610   49.6930  -11.0040 C.3    67  LEU67       0.0284
     66  CG        -0.5500   49.0550  -12.2950 C.3    67  LEU67       0.0019
     67  CD1       -1.2670   49.6500  -13.5010 C.3    67  LEU67       0.0001
     68  CD2        0.9650   49.2790  -12.3780 C.3    67  LEU67       0.0001
     69  N         -1.3590   50.5840   -7.9640 N.am   68  GLN68      -0.1979
     70  CA        -1.1810   51.6610   -7.0070 C.3    68  GLN68       0.1601
     71  C         -0.6600   51.1580   -5.6800 C.2    68  GLN68       0.2287
     72  O         -0.4560   51.9130   -4.7330 O.2    68  GLN68      -0.2864
     73  CB        -2.4680   52.4600   -6.8430 C.3    68  GLN68       0.0394
     74  CG        -3.6770   51.6800   -6.4880 C.3    68  GLN68       0.0908
     75  CD        -4.9130   52.5260   -6.6710 C.2    68  GLN68       0.2608
     76  OE1       -4.8790   53.7370   -6.4320 O.2    68  GLN68      -0.2717
     77  NE2       -6.0160   51.9010   -7.0950 N.am   68  GLN68      -0.0878
     78  N         -0.2180   65.5200  -12.1910 N.3   214  LYS214     -0.1231
     79  CA        -1.4500   64.8020  -11.8300 C.3   214  LYS214      0.1693
     80  C         -1.4040   63.3030  -11.4850 C.2   214  LYS214      0.2591
     81  O         -2.1060   62.8760  -10.5590 O.2   214  LYS214     -0.2718
     82  CB        -2.5100   65.0420  -12.9000 C.3   214  LYS214      0.0285
     83  CG        -3.8630   64.4330  -12.6640 C.3   214  LYS214      0.0035
     84  CD        -4.5630   65.1890  -11.5800 C.3   214  LYS214      0.0206
     85  CE        -6.0410   64.7930  -11.5070 C.3   214  LYS214      0.1093
     86  NZ        -6.2230   63.4710  -10.9370 N.3   214  LYS214     -0.1314
     87  N         -0.6210   62.5080  -12.2290 N.am  215  LEU215     -0.1980
     88  CA        -0.4990   61.0600  -11.9720 C.3   215  LEU215      0.1596
     89  C          0.3200   60.7660  -10.7200 C.2   215  LEU215      0.2287
     90  O         -0.1130   60.0070   -9.8580 O.2   215  LEU215     -0.2864
     91  CB         0.1650   60.3350  -13.1410 C.3   215  LEU215      0.0297
     92  CG        -0.6710   59.3010  -13.8970 C.3   215  LEU215      0.0022
     93  CD1        0.3030   58.4450  -14.7030 C.3   215  LEU215      0.0001
     94  CD2       -1.5160   58.4330  -12.9500 C.3   215  LEU215      0.0001
     95  N         -2.0650   61.3330   -7.8390 N.3   218  GLU218     -0.1231
     96  CA        -3.1100   60.3370   -7.7180 C.3   218  GLU218      0.1699
     97  C         -2.5630   59.0250   -7.1440 C.2   218  GLU218      0.2592
     98  O         -3.2930   58.2670   -6.4890 O.2   218  GLU218     -0.2718
     99  CB        -3.7120   60.0690   -9.0800 C.3   218  GLU218      0.0402
    100  CG        -4.9800   59.2690   -9.0100 C.3   218  GLU218      0.1161
    101  CD        -5.3990   58.7940  -10.3690 C.2   218  GLU218      0.3649
    102  OE1       -4.8940   57.7340  -10.8000 O.co2 218  GLU218     -0.2457
    103  OE2       -6.2140   59.4920  -11.0150 O.co2 218  GLU218     -0.2457
    104  N         -1.2820   58.7630   -7.4210 N.am  219  MET219     -0.1979
    105  CA        -0.5920   57.5590   -6.9450 C.3   219  MET219      0.1605
    106  C         -0.0450   57.8170   -5.5380 C.2   219  MET219      0.2287
    107  O         -0.2370   57.0090   -4.6260 O.2   219  MET219     -0.2864
    108  CB         0.5750   57.1580   -7.8880 C.3   219  MET219      0.0413
    109  CG         0.1790   56.6580   -9.2880 C.3   219  MET219      0.0598
    110  SD        -0.8860   55.1730   -9.3710 S.3   219  MET219     -0.1393
    111  CE        -2.5060   55.8760   -9.2600 C.3   219  MET219      0.0692
@<TRIPOS>BOND
     1    23    22    1
     2    23    24    1
     3    19    18    2
     4    20    21    1
     5    20    17    1
     6    18    17    1
     7    22    21    1
     8    17    16    1
     9     6     5    1
    10     4     3    2
    11     5     2    1
    12     5     7    1
    13     3     2    1
    14    11    10    2
    15    10     9    1
    16     2     1    1
    17    43    41    1
    18    14    12    1
    19     9    12    1
    20     9     8    1
    21    25    26    1
    22    12    13    1
    23    27    26    1
    24    27    28    2
    25    52    50   am
    26    51    50    2
    27    42    41    1
    28    26    29    1
    29    41    40    1
    30    29    30    1
    31    32    34   ar
    32    32    30   ar
    33    50    49    1
    34    13    15    1
    35    34    35   ar
    36    30    31   ar
    37    93    92    1
    38    40    37    1
    39    49    48    1
    40    36    37    1
    41    37    38    1
    42    92    91    1
    43    92    94    1
    44    35    33   ar
    45    31    33   ar
    46    67    66    1
    47    48    45    1
    48    91    88    1
    49    82    83    1
    50    82    79    1
    51    83    84    1
    52    38    39    2
    53    68    66    1
    54    66    65    1
    55    87    88    1
    56    87    80   am
    57    78    79    1
    58    45    44    1
    59    45    46    1
    60    88    89    1
    61    79    80    1
    62    84    85    1
    63    58    59    1
    64    58    57    1
    65    85    86    1
    66    80    81    2
    67    59    60    1
    68    46    47    2
    69    46    53   am
    70   103   101   ar
    71    65    62    1
    72    53    54    1
    73   102   101   ar
    74    89    90    2
    75   101   100    1
    76    54    57    1
    77    54    55    1
    78    62    61    1
    79    62    63    1
    80   110   109    1
    81   110   111    1
    82   109   108    1
    83    99   100    1
    84    99    96    1
    85    55    56    2
    86    63    64    2
    87    63    69   am
    88    69    70    1
    89   108   105    1
    90    95    96    1
    91    96    97    1
    92   104    97   am
    93   104   105    1
    94    97    98    2
    95    77    75   am
    96    70    73    1
    97    70    71    1
    98   105   106    1
    99    73    74    1
   100    75    74    1
   101    75    76    2
   102    71    72    2
   103   106   107    2
