@<TRIPOS>MOLECULE
tmp/1kv9A02.pdb
 96 95 0 0 0
SMALL
GASTEIGER

@<TRIPOS>ATOM
      1  N         -4.6690   26.8890   -2.5060 N.3    47  ALA47      -0.1231
      2  CA        -5.9950   27.4810   -2.6810 C.3    47  ALA47       0.1694
      3  C         -6.6560   27.6540   -1.3250 C.2    47  ALA47       0.2592
      4  O         -7.1620   28.7250   -0.9980 O.2    47  ALA47      -0.2718
      5  CB        -6.8570   26.5980   -3.5780 C.3    47  ALA47       0.0304
      6  N         -6.6590   26.5850   -0.5420 N.am   48  TRP48      -0.1962
      7  CA        -7.2280   26.6210    0.7930 C.3    48  TRP48       0.1771
      8  C         -6.7160   25.4360    1.5820 C.2    48  TRP48       0.2619
      9  O         -6.1050   24.5220    1.0250 O.2    48  TRP48      -0.2715
     10  CB        -8.7630   26.6040    0.7570 C.3    48  TRP48       0.0590
     11  CG        -9.3830   25.4380    0.0390 C.ar   48  TRP48       0.0006
     12  CD1       -9.5600   25.3010   -1.3090 C.ar   48  TRP48       0.0946
     13  CD2       -9.9510   24.2670    0.6380 C.ar   48  TRP48       0.0152
     14  NE1      -10.2110   24.1210   -1.5840 N.ar   48  TRP48      -0.2442
     15  CE2      -10.4600   23.4660   -0.4070 C.ar   48  TRP48       0.0810
     16  CE3      -10.0800   23.8170    1.9600 C.ar   48  TRP48       0.0012
     17  CZ2      -11.0920   22.2380   -0.1720 C.ar   48  TRP48       0.0191
     18  CZ3      -10.7090   22.5950    2.1940 C.ar   48  TRP48       0.0001
     19  CH2      -11.2060   21.8210    1.1310 C.ar   48  TRP48       0.0015
     20  N         -6.9430   25.4620    2.8870 N.am   49  TYR49      -0.1974
     21  CA        -6.4890   24.3700    3.7280 C.3    49  TYR49       0.1639
     22  C         -7.3620   24.2200    4.9610 C.2    49  TYR49       0.2290
     23  O         -8.0890   25.1380    5.3420 O.2    49  TYR49      -0.2864
     24  CB        -5.0310   24.5860    4.1500 C.3    49  TYR49       0.0560
     25  CG        -4.7900   25.8150    5.0040 C.ar   49  TYR49      -0.0198
     26  CD1       -4.6410   27.0760    4.4260 C.ar   49  TYR49      -0.0009
     27  CD2       -4.7120   25.7150    6.3940 C.ar   49  TYR49      -0.0009
     28  CE1       -4.4150   28.2100    5.2150 C.ar   49  TYR49       0.0417
     29  CE2       -4.4910   26.8380    7.1880 C.ar   49  TYR49       0.0417
     30  CZ        -4.3420   28.0800    6.5930 C.ar   49  TYR49       0.1957
     31  OH        -4.1160   29.1880    7.3810 O.3    49  TYR49      -0.2866
     32  N        -16.0410   20.7850   -0.8620 N.3    83  ALA83      -0.1231
     33  CA       -14.9640   21.3560   -1.6690 C.3    83  ALA83       0.1694
     34  C        -15.1770   22.7980   -2.1170 C.2    83  ALA83       0.2592
     35  O        -14.2160   23.4890   -2.4470 O.2    83  ALA83      -0.2718
     36  CB       -14.6960   20.4690   -2.8870 C.3    83  ALA83       0.0304
     37  N        -16.4240   23.2540   -2.1350 N.am   84  ALA84      -0.1966
     38  CA       -16.7040   24.6230   -2.5480 C.3    84  ALA84       0.1728
     39  C        -16.5220   25.6110   -1.3960 C.2    84  ALA84       0.2617
     40  O        -15.9250   26.6680   -1.5730 O.2    84  ALA84      -0.2715
     41  CB       -18.1180   24.7230   -3.1100 C.3    84  ALA84       0.0334
     42  N        -17.0320   25.2630   -0.2180 N.am   85  SER85      -0.1936
     43  CA       -16.9260   26.1420    0.9410 C.3    85  SER85       0.2055
     44  C        -15.7010   25.8490    1.8010 C.2    85  SER85       0.2644
     45  O        -15.2360   26.7180    2.5390 O.2    85  SER85      -0.2714
     46  CB       -18.1820   26.0280    1.8100 C.3    85  SER85       0.2130
     47  OG       -18.2190   24.7850    2.4870 O.3    85  SER85      -0.2179
     48  N        -15.1850   24.6260    1.7100 N.am   86  GLY86      -0.1939
     49  CA       -14.0270   24.2460    2.4990 C.3    86  GLY86       0.2014
     50  C        -14.4180   23.9000    3.9270 C.2    86  GLY86       0.2638
     51  O        -13.5610   23.6810    4.7840 O.2    86  GLY86      -0.2714
     52  N        -15.7220   23.8420    4.1820 N.am   87  LYS87      -0.1977
     53  CA       -16.2330   23.5320    5.5130 C.3    87  LYS87       0.1596
     54  C        -16.4290   22.0420    5.7480 C.2    87  LYS87       0.2287
     55  O        -16.7760   21.2990    4.8290 O.2    87  LYS87      -0.2864
     56  CB       -17.5750   24.2300    5.7390 C.3    87  LYS87       0.0298
     57  CG       -17.5050   25.7370    5.8600 C.3    87  LYS87       0.0038
     58  CD       -18.9070   26.3130    6.0340 C.3    87  LYS87       0.0206
     59  CE       -18.8570   27.7370    6.5470 C.3    87  LYS87       0.1093
     60  NZ       -18.1980   27.7890    7.8830 N.3    87  LYS87      -0.1314
     61  N        -13.7550   20.8320   -9.8500 N.3   510  LEU510     -0.1231
     62  CA       -14.9490   21.4000   -9.2290 C.3   510  LEU510      0.1693
     63  C        -15.2650   22.7110   -9.9320 C.2   510  LEU510      0.2591
     64  O        -14.4310   23.6110   -9.9760 O.2   510  LEU510     -0.2718
     65  CB       -14.7030   21.6620   -7.7410 C.3   510  LEU510      0.0284
     66  CG       -15.7810   22.4450   -6.9820 C.3   510  LEU510      0.0019
     67  CD1      -17.0190   21.5800   -6.7900 C.3   510  LEU510      0.0001
     68  CD2      -15.2260   22.8810   -5.6330 C.3   510  LEU510      0.0001
     69  N        -16.4700   22.8110  -10.4800 N.am  511  ALA511     -0.1980
     70  CA       -16.8960   24.0100  -11.1910 C.3   511  ALA511      0.1597
     71  C        -15.8800   24.4380  -12.2530 C.2   511  ALA511      0.2287
     72  O        -15.5400   25.6170  -12.3530 O.2   511  ALA511     -0.2864
     73  CB       -17.1290   25.1480  -10.2020 C.3   511  ALA511      0.0319
     74  N        -12.7230   23.8920  -12.3680 N.3   513  ARG513     -0.1245
     75  CA       -11.4040   24.2210  -11.8400 C.3   513  ARG513      0.1563
     76  C        -10.7260   22.9930  -11.2380 C.2   513  ARG513      0.2260
     77  O        -11.3260   22.2750  -10.4390 O.2   513  ARG513     -0.2867
     78  CB       -11.5600   25.3220  -10.7880 C.3   513  ARG513      0.0307
     79  CG       -10.2800   25.9020  -10.2170 C.3   513  ARG513      0.0489
     80  CD       -10.6250   27.2040   -9.5010 C.3   513  ARG513      0.2205
     81  NE        -9.5670   27.7120   -8.6350 N.pl3 513  ARG513     -0.0865
     82  CZ        -8.3710   28.1150   -9.0510 C.cat 513  ARG513      0.5346
     83  NH1       -8.0560   28.0710  -10.3410 N.pl3 513  ARG513      0.1354
     84  NH2       -7.4920   28.5780   -8.1680 N.pl3 513  ARG513      0.1354
     85  N         -8.1740   20.9680   -8.8450 N.3   515  TYR515     -0.1241
     86  CA        -7.5340   21.0950   -7.5400 C.3   515  TYR515      0.1605
     87  C         -6.7000   19.8500   -7.2590 C.2   515  TYR515      0.2264
     88  O         -7.0480   18.7500   -7.6870 O.2   515  TYR515     -0.2867
     89  CB        -8.5680   21.2300   -6.4150 C.3   515  TYR515      0.0534
     90  CG        -9.4380   22.4670   -6.4740 C.ar  515  TYR515     -0.0201
     91  CD1      -10.6050   22.4850   -7.2330 C.ar  515  TYR515     -0.0009
     92  CD2       -9.0870   23.6230   -5.7700 C.ar  515  TYR515     -0.0009
     93  CE1      -11.4100   23.6230   -7.2930 C.ar  515  TYR515      0.0417
     94  CE2       -9.8800   24.7670   -5.8220 C.ar  515  TYR515      0.0417
     95  CZ       -11.0430   24.7590   -6.5870 C.ar  515  TYR515      0.1957
     96  OH       -11.8380   25.8810   -6.6430 O.3   515  TYR515     -0.2866
@<TRIPOS>BOND
     1    74    75    1
     2    72    71    2
     3    71    70    1
     4    75    76    1
     5    75    78    1
     6    76    77    2
     7    70    69    1
     8    70    73    1
     9    78    79    1
    10    69    63   am
    11    83    82    1
    12    79    80    1
    13    64    63    2
    14    63    62    1
    15    61    62    1
    16    80    81    1
    17    62    65    1
    18    82    81    2
    19    82    84    1
    20    85    86    1
    21    65    66    1
    22    88    87    2
    23    86    87    1
    24    86    89    1
    25    93    91   ar
    26    93    95   ar
    27    91    90   ar
    28    66    67    1
    29    66    68    1
    30    96    95    1
    31    95    94   ar
    32    90    89    1
    33    90    92   ar
    34    94    92   ar
    35     5     2    1
    36    41    38    1
    37    36    33    1
    38     2     1    1
    39     2     3    1
    40    38    37    1
    41    38    39    1
    42    35    34    2
    43    37    34   am
    44    34    33    1
    45    33    32    1
    46    14    12   ar
    47    14    15   ar
    48    40    39    2
    49    39    42   am
    50     3     4    2
    51     3     6   am
    52    12    11   ar
    53     6     7    1
    54    15    17   ar
    55    15    13   ar
    56    42    43    1
    57    17    19   ar
    58    11    13   ar
    59    11    10    1
    60    13    16   ar
    61    10     7    1
    62     7     8    1
    63    43    44    1
    64    43    46    1
    65     9     8    2
    66    19    18   ar
    67     8    20   am
    68    48    44   am
    69    48    49    1
    70    44    45    2
    71    46    47    1
    72    16    18   ar
    73    49    50    1
    74    20    21    1
    75    21    24    1
    76    21    22    1
    77    50    52   am
    78    50    51    2
    79    24    25    1
    80    52    53    1
    81    26    25   ar
    82    26    28   ar
    83    55    54    2
    84    22    23    2
    85    25    27   ar
    86    28    30   ar
    87    53    56    1
    88    53    54    1
    89    56    57    1
    90    57    58    1
    91    58    59    1
    92    27    29   ar
    93    59    60    1
    94    30    29   ar
    95    30    31    1
