@<TRIPOS>MOLECULE
tmp/1kv9A00.pdb
 192 184 0 0 0
SMALL
GASTEIGER

@<TRIPOS>ATOM
      1  N         -2.4310    9.0410    6.4560 N.3    59  GLU59      -0.1245
      2  CA        -2.0850    8.2470    5.2770 C.3    59  GLU59       0.1567
      3  C         -3.1900    8.1670    4.2350 C.2    59  GLU59       0.2260
      4  O         -3.0270    7.5220    3.2020 O.2    59  GLU59      -0.2867
      5  CB        -1.7170    6.8150    5.6970 C.3    59  GLU59       0.0388
      6  CG        -0.5180    6.7170    6.6290 C.3    59  GLU59       0.1160
      7  CD        -0.0400    5.2920    6.8220 C.2    59  GLU59       0.3649
      8  OE1        0.9720    5.0970    7.5310 O.co2  59  GLU59      -0.2457
      9  OE2       -0.6710    4.3660    6.2690 O.co2  59  GLU59      -0.2457
     10  N          0.7890   -2.2690   14.8760 N.3   105  CYS105     -0.1221
     11  CA         2.2060   -2.1170   14.5520 C.3   105  CYS105      0.1808
     12  C          2.7540   -0.8170   14.0510 C.2   105  CYS105      0.2601
     13  O          3.8590   -0.4120   14.4090 O.2   105  CYS105     -0.2717
     14  CB         2.6270   -3.1060   13.4680 C.3   105  CYS105      0.0970
     15  SG         2.1480   -2.6620   11.7420 S.3   105  CYS105     -0.0800
     16  N          1.9730   -0.1550   13.2230 N.am  106  CYS106     -0.1970
     17  CA         2.5290    0.9620   12.5210 C.3   106  CYS106      0.1712
     18  C          1.8870    2.3440   12.5370 C.2   106  CYS106      0.2296
     19  O          1.6970    2.9580   11.4770 O.2   106  CYS106     -0.2864
     20  CB         2.7010    0.4280   11.1030 C.3   106  CYS106      0.0983
     21  SG         3.4550   -1.2620   11.0130 S.3   106  CYS106     -0.0798
     22  N         -2.8850    4.8350   11.9630 N.3   109  VAL109     -0.1245
     23  CA        -3.2320    5.3280   10.6350 C.3   109  VAL109      0.1561
     24  C         -4.4240    4.6990    9.9190 C.2   109  VAL109      0.2260
     25  O         -4.9120    3.6300   10.2880 O.2   109  VAL109     -0.2867
     26  CB        -2.0160    5.1960    9.7080 C.3   109  VAL109      0.0252
     27  CG1       -0.8260    5.9540   10.3020 C.3   109  VAL109      0.0019
     28  CG2       -1.6690    3.7180    9.5350 C.3   109  VAL109      0.0019
     29  N         -5.7200    4.6330    5.6450 N.3   111  ARG111     -0.1245
     30  CA        -5.4260    5.0490    4.2780 C.3   111  ARG111      0.1563
     31  C         -6.5970    5.5690    3.4520 C.2   111  ARG111      0.2260
     32  O         -6.4390    5.8770    2.2720 O.2   111  ARG111     -0.2867
     33  CB        -4.7100    3.9050    3.5500 C.3   111  ARG111      0.0307
     34  CG        -3.5290    3.4000    4.3650 C.3   111  ARG111      0.0489
     35  CD        -2.5550    2.4900    3.6320 C.3   111  ARG111      0.2205
     36  NE        -1.5070    2.1290    4.5840 N.pl3 111  ARG111     -0.0865
     37  CZ        -1.5820    1.1110    5.4350 C.cat 111  ARG111      0.5346
     38  NH1       -2.6450    0.3110    5.4420 N.pl3 111  ARG111      0.1354
     39  NH2       -0.6310    0.9410    6.3400 N.pl3 111  ARG111      0.1354
     40  N         -5.9700   -5.4370   13.3510 N.3   153  SER153     -0.1217
     41  CA        -6.3030   -4.0280   13.1800 C.3   153  SER153      0.1889
     42  C         -6.4980   -3.7800   11.6920 C.2   153  SER153      0.2288
     43  O         -6.0290   -4.5630   10.8680 O.2   153  SER153     -0.2866
     44  CB        -5.1740   -3.1320   13.7160 C.3   153  SER153      0.2089
     45  OG        -3.9820   -3.2950   12.9680 O.3   153  SER153     -0.2183
     46  N         -6.0060   -0.8330    8.7250 N.3   155  THR155     -0.1218
     47  CA        -5.3820    0.4460    8.4100 C.3   155  THR155      0.1862
     48  C         -5.6080    0.8260    6.9570 C.2   155  THR155      0.2287
     49  O         -5.5320    1.9990    6.5910 O.2   155  THR155     -0.2866
     50  CB        -3.8630    0.3700    8.6170 C.3   155  THR155      0.1770
     51  OG1       -3.3570   -0.7640    7.9000 O.3   155  THR155     -0.2211
     52  CG2       -3.5190    0.2300   10.0900 C.3   155  THR155      0.0375
     53  N         -4.4350   -6.1050    9.4250 N.3   170  GLY170     -0.1210
     54  CA        -3.0100   -6.2170    9.6820 C.3   170  GLY170      0.1956
     55  C         -2.7620   -6.8120   11.0540 C.2   170  GLY170      0.2612
     56  O         -3.7020   -6.9830   11.8300 O.2   170  GLY170     -0.2717
     57  N         -1.5050   -7.1330   11.3530 N.am  171  GLY171     -0.1942
     58  CA        -1.1730   -7.6980   12.6490 C.3   171  GLY171      0.2014
     59  C         -0.1480   -8.8180   12.5940 C.2   171  GLY171      0.2639
     60  O          0.1260   -9.4600   13.6090 O.2   171  GLY171     -0.2714
     61  N          0.4280   -9.0540   11.4170 N.am  172  ALA172     -0.1963
     62  CA         1.4140  -10.1200   11.2590 C.3   172  ALA172      0.1728
     63  C          2.6300   -9.9650   12.1750 C.2   172  ALA172      0.2616
     64  O          3.2720  -10.9550   12.5270 O.2   172  ALA172     -0.2715
     65  CB         1.8630  -10.2050    9.7990 C.3   172  ALA172      0.0334
     66  N          2.9510   -8.7340   12.5620 N.am  173  GLU173     -0.1977
     67  CA         4.0960   -8.5110   13.4410 C.3   173  GLU173      0.1602
     68  C          3.8600   -9.1230   14.8200 C.2   173  GLU173      0.2287
     69  O          4.7890   -9.6460   15.4420 O.2   173  GLU173     -0.2864
     70  CB         4.3940   -7.0130   13.5690 C.3   173  GLU173      0.0415
     71  CG         5.4110   -6.5010   12.5520 C.3   173  GLU173      0.1163
     72  CD         4.9280   -6.6370   11.1190 C.2   173  GLU173      0.3649
     73  OE1        4.1490   -5.7710   10.6700 O.co2 173  GLU173     -0.2457
     74  OE2        5.3200   -7.6170   10.4500 O.co2 173  GLU173     -0.2457
     75  N         -1.2180  -11.2970    6.1490 N.3   230  THR230     -0.1218
     76  CA        -2.2720  -10.2940    6.2420 C.3   230  THR230      0.1862
     77  C         -2.4040   -9.4680    4.9670 C.2   230  THR230      0.2287
     78  O         -1.4100   -9.1530    4.3080 O.2   230  THR230     -0.2866
     79  CB        -2.0330   -9.3300    7.4310 C.3   230  THR230      0.1770
     80  OG1       -0.6660   -8.9040    7.4330 O.3   230  THR230     -0.2211
     81  CG2       -2.3590  -10.0160    8.7550 C.3   230  THR230      0.0375
     82  N         -3.3100   -6.1670    4.3100 N.3   232  TRP232     -0.1241
     83  CA        -3.5020   -4.8560    4.9170 C.3   232  TRP232      0.1605
     84  C         -3.4940   -3.6140    4.0460 C.2   232  TRP232      0.2264
     85  O         -3.6080   -2.5080    4.5700 O.2   232  TRP232     -0.2867
     86  CB        -2.4720   -4.6520    6.0300 C.3   232  TRP232      0.0550
     87  CG        -1.0350   -4.8200    5.6000 C.ar  232  TRP232      0.0003
     88  CD1       -0.3300   -5.9870    5.5320 C.ar  232  TRP232      0.0946
     89  CD2       -0.1100   -3.7750    5.2550 C.ar  232  TRP232      0.0152
     90  NE1        0.9770   -5.7360    5.1820 N.ar  232  TRP232     -0.2442
     91  CE2        1.1380   -4.3870    5.0050 C.ar  232  TRP232      0.0810
     92  CE3       -0.2160   -2.3830    5.1410 C.ar  232  TRP232      0.0012
     93  CZ2        2.2770   -3.6510    4.6480 C.ar  232  TRP232      0.0191
     94  CZ3        0.9170   -1.6510    4.7870 C.ar  232  TRP232      0.0001
     95  CH2        2.1460   -2.2880    4.5450 C.ar  232  TRP232      0.0015
     96  N          3.5710  -10.5640    4.9590 N.3   250  ASN250     -0.1240
     97  CA         4.6400  -11.3850    5.5180 C.3   250  ASN250      0.1653
     98  C          4.1380  -12.4340    6.5010 C.2   250  ASN250      0.2266
     99  O          2.9940  -12.3930    6.9450 O.2   250  ASN250     -0.2867
    100  CB         5.6630  -10.4880    6.2170 C.3   250  ASN250      0.1155
    101  CG         5.0430   -9.6600    7.3260 C.2   250  ASN250      0.2627
    102  OD1        4.3590   -8.6670    7.0710 O.2   250  ASN250     -0.2716
    103  ND2        5.2630  -10.0780    8.5670 N.am  250  ASN250     -0.0877
    104  N          9.9770  -10.1320    6.4090 N.3   295  ASP295     -0.1239
    105  CA         8.9250   -9.1190    6.5390 C.3   295  ASP295      0.1674
    106  C          8.6510   -8.5770    5.1330 C.2   295  ASP295      0.2266
    107  O          8.2110   -7.4400    4.9680 O.2   295  ASP295     -0.2867
    108  CB         9.3550   -7.9600    7.4560 C.3   295  ASP295      0.1410
    109  CG         8.2000   -7.0170    7.7990 C.2   295  ASP295      0.3668
    110  OD1        8.4630   -5.8480    8.1520 O.co2 295  ASP295     -0.2456
    111  OD2        7.0290   -7.4430    7.7310 O.co2 295  ASP295     -0.2456
    112  N          6.4490   -8.2290    2.4190 N.3   297  THR297     -0.1218
    113  CA         5.0470   -8.2870    2.0440 C.3   297  THR297      0.1862
    114  C          4.8810   -8.1480    0.5320 C.2   297  THR297      0.2287
    115  O          5.8080   -7.7480   -0.1770 O.2   297  THR297     -0.2866
    116  CB         4.2800   -7.1180    2.6620 C.3   297  THR297      0.1770
    117  OG1        4.8240   -5.8960    2.1480 O.3   297  THR297     -0.2211
    118  CG2        4.4190   -7.1130    4.1870 C.3   297  THR297      0.0375
    119  N          7.9870   -4.8880   -1.3670 N.3   322  LYS322     -0.1245
    120  CA         9.1270   -4.6660   -0.4910 C.3   322  LYS322      0.1561
    121  C         10.4360   -5.3330   -0.8990 C.2   322  LYS322      0.2260
    122  O         11.5040   -4.7530   -0.6880 O.2   322  LYS322     -0.2867
    123  CB         8.8180   -5.1320    0.9330 C.3   322  LYS322      0.0271
    124  CG         7.8930   -4.2550    1.7500 C.3   322  LYS322      0.0035
    125  CD         7.9880   -4.7070    3.2040 C.3   322  LYS322      0.0206
    126  CE         7.0020   -4.0000    4.1160 C.3   322  LYS322      0.1093
    127  NZ         7.0870   -4.6040    5.4760 N.3   322  LYS322     -0.1314
    128  N         12.9000   -4.5460    6.3430 N.3   377  PRO377     -0.2102
    129  CA        11.4740   -4.6050    6.6840 C.3   377  PRO377      0.1504
    130  C         10.7270   -3.3440    6.2170 C.2   377  PRO377      0.2575
    131  O          9.5160   -3.3650    5.9930 O.2   377  PRO377     -0.2718
    132  CB        11.4960   -4.7320    8.2070 C.3   377  PRO377      0.0282
    133  CG        12.7250   -5.5480    8.4430 C.3   377  PRO377      0.0208
    134  CD        13.7300   -4.8900    7.5140 C.3   377  PRO377      0.0893
    135  N         11.4530   -2.2410    6.0780 N.am  378  PHE378     -0.1977
    136  CA        10.8430   -0.9960    5.6370 C.3   378  PHE378      0.1639
    137  C         10.5260   -1.0610    4.1480 C.2   378  PHE378      0.2290
    138  O          9.7220   -0.2750    3.6390 O.2   378  PHE378     -0.2864
    139  CB        11.7720    0.1710    5.9740 C.3   378  PHE378      0.0560
    140  CG        11.9400    0.3780    7.4520 C.ar  378  PHE378     -0.0200
    141  CD1       10.9100    0.9380    8.2080 C.ar  378  PHE378     -0.0042
    142  CD2       13.0920   -0.0550    8.1050 C.ar  378  PHE378     -0.0042
    143  CE1       11.0240    1.0600    9.5970 C.ar  378  PHE378     -0.0003
    144  CE2       13.2180    0.0610    9.4910 C.ar  378  PHE378     -0.0003
    145  CZ        12.1820    0.6190   10.2380 C.ar  378  PHE378     -0.0000
    146  N          7.2310    0.6420    0.1610 N.3   382  ASN382     -0.1225
    147  CA         6.2310    0.2580    1.1470 C.3   382  ASN382      0.1785
    148  C          4.8430    0.7040    0.6720 C.2   382  ASN382      0.2597
    149  O          4.5850    0.7360   -0.5310 O.2   382  ASN382     -0.2718
    150  CB         6.5860    0.8780    2.5070 C.3   382  ASN382      0.1169
    151  CG         5.9890    0.1080    3.6780 C.2   382  ASN382      0.2627
    152  OD1        4.7750   -0.0490    3.7760 O.2   382  ASN382     -0.2716
    153  ND2        6.8450   -0.3700    4.5740 N.am  382  ASN382     -0.0877
    154  N          3.9570    1.0600    1.6000 N.am  383  TRP383     -0.1976
    155  CA         2.5960    1.4670    1.2360 C.3   383  TRP383      0.1640
    156  C          2.4760    2.8020    0.4940 C.2   383  TRP383      0.2290
    157  O          1.4450    3.0690   -0.1240 O.2   383  TRP383     -0.2864
    158  CB         1.6950    1.5170    2.4790 C.3   383  TRP383      0.0576
    159  CG         2.0770    2.6050    3.4330 C.ar  383  TRP383      0.0006
    160  CD1        3.0390    2.5460    4.3990 C.ar  383  TRP383      0.0946
    161  CD2        1.5720    3.9470    3.4510 C.ar  383  TRP383      0.0152
    162  NE1        3.1710    3.7680    5.0130 N.ar  383  TRP383     -0.2442
    163  CE2        2.2830    4.6470    4.4510 C.ar  383  TRP383      0.0810
    164  CE3        0.5910    4.6290    2.7140 C.ar  383  TRP383      0.0012
    165  CZ2        2.0450    5.9980    4.7370 C.ar  383  TRP383      0.0191
    166  CZ3        0.3540    5.9740    2.9980 C.ar  383  TRP383      0.0001
    167  CH2        1.0810    6.6420    4.0030 C.ar  383  TRP383      0.0015
    168  N         10.9990    7.0620    3.2710 N.3   460  TRP460     -0.1241
    169  CA         9.7390    7.4860    3.8720 C.3   460  TRP460      0.1605
    170  C          9.1020    8.7540    3.3190 C.2   460  TRP460      0.2264
    171  O          8.5270    9.5520    4.0690 O.2   460  TRP460     -0.2867
    172  CB         9.8750    7.5990    5.3950 C.3   460  TRP460      0.0550
    173  CG         8.6990    6.9840    6.0820 C.ar  460  TRP460      0.0003
    174  CD1        7.7080    7.6310    6.7710 C.ar  460  TRP460      0.0946
    175  CD2        8.3460    5.5970    6.0770 C.ar  460  TRP460      0.0152
    176  NE1        6.7570    6.7270    7.1910 N.ar  460  TRP460     -0.2442
    177  CE2        7.1240    5.4730    6.7770 C.ar  460  TRP460      0.0810
    178  CE3        8.9420    4.4450    5.5450 C.ar  460  TRP460      0.0012
    179  CZ2        6.4890    4.2420    6.9590 C.ar  460  TRP460      0.0191
    180  CZ3        8.3080    3.2190    5.7270 C.ar  460  TRP460      0.0001
    181  CH2        7.0950    3.1300    6.4280 C.ar  460  TRP460      0.0015
    182  N          3.4170    7.0510   10.3190 N.3   524  GLY524     -0.1210
    183  CA         3.7110    5.7600    9.7280 C.3   524  GLY524      0.1956
    184  C          4.7050    5.0650   10.6390 C.2   524  GLY524      0.2611
    185  O          5.3040    5.7090   11.5010 O.2   524  GLY524     -0.2717
    186  N          4.9100    3.7670   10.4460 N.am  525  VAL525     -0.1979
    187  CA         5.8120    3.0220   11.3160 C.3   525  VAL525      0.1595
    188  C          7.2250    3.5830   11.4630 C.2   525  VAL525      0.2287
    189  O          7.7670    3.5910   12.5670 O.2   525  VAL525     -0.2864
    190  CB         5.9010    1.5290   10.8990 C.3   525  VAL525      0.0276
    191  CG1        6.7850    1.3620    9.6710 C.3   525  VAL525      0.0022
    192  CG2        6.4250    0.7060   12.0650 C.3   525  VAL525      0.0022
@<TRIPOS>BOND
     1   119   120    1
     2   121   122    2
     3   121   120    1
     4   149   148    2
     5   120   123    1
     6   115   114    2
     7   157   156    2
     8   146   147    1
     9   156   155    1
    10   114   113    1
    11   148   147    1
    12   148   154   am
    13   123   124    1
    14   147   150    1
    15   155   154    1
    16   155   158    1
    17   124   125    1
    18   113   112    1
    19   113   116    1
    20   117   116    1
    21    32    31    2
    22   158   159    1
    23   150   151    1
    24   116   118    1
    25   164   166   ar
    26   164   161   ar
    27   166   167   ar
    28     4     3    2
    29   125   126    1
    30   168   169    1
    31   170   169    1
    32   170   171    2
    33   159   161   ar
    34   159   160   ar
    35   161   163   ar
    36    31    30    1
    37    33    30    1
    38    33    34    1
    39    35    34    1
    40    35    36    1
    41   138   137    2
    42   151   152    2
    43   151   153   am
    44   169   172    1
    45   167   165   ar
    46    84    85    2
    47    84    83    1
    48   126   127    1
    49   137   136    1
    50     3     2    1
    51    30    29    1
    52    78    77    2
    53    82    83    1
    54   160   162   ar
    55   163   165   ar
    56   163   162   ar
    57    95    93   ar
    58    95    94   ar
    59    36    37    2
    60    93    91   ar
    61    94    92   ar
    62    83    86    1
    63    96    97    1
    64    77    76    1
    65   107   106    2
    66    91    90   ar
    67    91    89   ar
    68   106   105    1
    69    92    89   ar
    70    90    88   ar
    71    89    87   ar
    72     2     5    1
    73     2     1    1
    74   172   173    1
    75    37    38    1
    76    37    39    1
    77    97   100    1
    78    97    98    1
    79    88    87   ar
    80   178   180   ar
    81   178   175   ar
    82    87    86    1
    83   136   139    1
    84   136   135    1
    85     5     6    1
    86   180   181   ar
    87   139   140    1
    88   131   130    2
    89   175   173   ar
    90   175   177   ar
    91   135   130   am
    92   173   174   ar
    93    75    76    1
    94   100   101    1
    95   130   129    1
    96    76    79    1
    97     9     7   ar
    98   128   129    1
    99   128   134    1
   100   104   105    1
   101   181   179   ar
   102    98    99    2
   103   105   108    1
   104    49    48    2
   105     6     7    1
   106   129   132    1
   107   174   176   ar
   108   177   179   ar
   109   177   176   ar
   110     7     8   ar
   111    48    47    1
   112   102   101    2
   113   101   103   am
   114    79    80    1
   115    79    81    1
   116   140   142   ar
   117   140   141   ar
   118   108   109    1
   119   134   133    1
   120   111   109   ar
   121   109   110   ar
   122    51    50    1
   123   142   144   ar
   124   132   133    1
   125   141   143   ar
   126    47    50    1
   127    47    46    1
   128    50    52    1
   129    53    54    1
   130   144   145   ar
   131    28    26    1
   132   143   145   ar
   133   191   190    1
   134    54    55    1
   135    26    27    1
   136    26    23    1
   137   183   182    1
   138   183   184    1
   139    65    62    1
   140    24    25    2
   141    24    23    1
   142   186   184   am
   143   186   187    1
   144    74    72   ar
   145    23    22    1
   146   184   185    2
   147    73    72   ar
   148    43    42    2
   149   190   187    1
   150   190   192    1
   151    21    20    1
   152    21    15    1
   153    55    57   am
   154    55    56    2
   155    20    17    1
   156    72    71    1
   157    62    61    1
   158    62    63    1
   159   187   188    1
   160    57    58    1
   161    61    59   am
   162   188   189    2
   163    19    18    2
   164    42    41    1
   165    15    14    1
   166    63    64    2
   167    63    66   am
   168    17    18    1
   169    17    16    1
   170    71    70    1
   171    66    67    1
   172    59    58    1
   173    59    60    2
   174    45    44    1
   175    41    40    1
   176    41    44    1
   177    16    12   am
   178    67    70    1
   179    67    68    1
   180    14    11    1
   181    12    13    2
   182    12    11    1
   183    11    10    1
   184    68    69    2
