@<TRIPOS>MOLECULE
tmp/1kv9A01.pdb
 205 197 0 0 0
SMALL
GASTEIGER

@<TRIPOS>ATOM
      1  N         -1.0580   12.4010   14.7200 N.3    56  ARG56      -0.1245
      2  CA        -0.4330   11.1570   14.2990 C.3    56  ARG56       0.1563
      3  C         -0.4210   11.0890   12.7700 C.2    56  ARG56       0.2260
      4  O         -0.8620   12.0180   12.0950 O.2    56  ARG56      -0.2867
      5  CB        -1.1790    9.9630   14.9040 C.3    56  ARG56       0.0307
      6  CG        -1.1700    9.9550   16.4380 C.3    56  ARG56       0.0489
      7  CD         0.2450    9.7930   16.9950 C.3    56  ARG56       0.2205
      8  NE         0.7630    8.4490   16.7550 N.pl3  56  ARG56      -0.0865
      9  CZ         0.8020    7.4860   17.6710 C.cat  56  ARG56       0.5346
     10  NH1        0.3640    7.7130   18.9030 N.pl3  56  ARG56       0.1354
     11  NH2        1.2580    6.2850   17.3500 N.pl3  56  ARG56       0.1354
     12  N         -3.3630    0.8340   20.1860 N.3   101  ALA101     -0.1231
     13  CA        -2.1130    1.0020   19.4590 C.3   101  ALA101      0.1694
     14  C         -1.0600   -0.0110   19.9110 C.2   101  ALA101      0.2591
     15  O         -0.0920   -0.2650   19.1920 O.2   101  ALA101     -0.2718
     16  CB        -1.5930    2.4210   19.6360 C.3   101  ALA101      0.0304
     17  N         -1.2370   -0.5850   21.1010 N.am  102  ARG102     -0.1980
     18  CA        -0.2800   -1.5790   21.5770 C.3   102  ARG102      0.1597
     19  C         -0.2940   -2.7790   20.6280 C.2   102  ARG102      0.2287
     20  O          0.7030   -3.4890   20.4980 O.2   102  ARG102     -0.2864
     21  CB        -0.6090   -2.0380   23.0040 C.3   102  ARG102      0.0334
     22  CG         0.4330   -3.0090   23.5580 C.3   102  ARG102      0.0492
     23  CD         0.1080   -3.5210   24.9530 C.3   102  ARG102      0.2205
     24  NE         1.0530   -4.5650   25.3470 N.pl3 102  ARG102     -0.0865
     25  CZ         0.9660   -5.2830   26.4640 C.cat 102  ARG102      0.5346
     26  NH1       -0.0310   -5.0750   27.3140 N.pl3 102  ARG102      0.1354
     27  NH2        1.8770   -6.2160   26.7260 N.pl3 102  ARG102      0.1354
     28  N          9.7790   -4.4540   23.9580 N.3   590  PHE590     -0.1227
     29  CA         8.4840   -3.8800   24.3260 C.3   590  PHE590      0.1736
     30  C          8.2230   -2.3960   24.0960 C.2   590  PHE590      0.2595
     31  O          7.0670   -1.9980   23.9550 O.2   590  PHE590     -0.2718
     32  CB         8.2100   -4.1620   25.8120 C.3   590  PHE590      0.0547
     33  CG         8.0020   -5.6110   26.1300 C.ar  590  PHE590     -0.0202
     34  CD1        6.7400   -6.1850   26.0170 C.ar  590  PHE590     -0.0042
     35  CD2        9.0680   -6.4080   26.5330 C.ar  590  PHE590     -0.0042
     36  CE1        6.5430   -7.5330   26.3020 C.ar  590  PHE590     -0.0003
     37  CE2        8.8820   -7.7570   26.8180 C.ar  590  PHE590     -0.0003
     38  CZ         7.6160   -8.3200   26.7020 C.ar  590  PHE590     -0.0000
     39  N          9.2660   -1.5710   24.0600 N.am  591  CYS591     -0.1970
     40  CA         9.0430   -0.1320   23.9280 C.3   591  CYS591      0.1712
     41  C          9.4880    0.5730   22.6510 C.2   591  CYS591      0.2296
     42  O          8.9130    1.5910   22.2750 O.2   591  CYS591     -0.2864
     43  CB         9.6920    0.5860   25.1150 C.3   591  CYS591      0.0983
     44  SG         9.7030   -0.3600   26.6760 S.3   591  CYS591     -0.0798
     45  N          9.0350    0.0900   19.5420 N.3   593  VAL593     -0.1231
     46  CA         8.0470    0.2760   18.4790 C.3   593  VAL593      0.1692
     47  C          7.2210    1.5580   18.5770 C.2   593  VAL593      0.2592
     48  O          6.5400    1.9360   17.6220 O.2   593  VAL593     -0.2718
     49  CB         7.0980   -0.9410   18.3750 C.3   593  VAL593      0.0266
     50  CG1        7.9100   -2.1860   18.0740 C.3   593  VAL593      0.0020
     51  CG2        6.3040   -1.1050   19.6570 C.3   593  VAL593      0.0020
     52  N          7.2800    2.2270   19.7240 N.am  594  CYS594     -0.1956
     53  CA         6.5540    3.4790   19.9000 C.3   594  CYS594      0.1843
     54  C          7.4800    4.6090   20.3490 C.2   594  CYS594      0.2625
     55  O          7.3410    5.7410   19.8980 O.2   594  CYS594     -0.2714
     56  CB         5.4140    3.3160   20.9120 C.3   594  CYS594      0.0997
     57  SG         3.9480    2.3930   20.3260 S.3   594  CYS594     -0.0797
     58  N          8.4340    4.3030   21.2260 N.am  595  HIS595     -0.1973
     59  CA         9.3530    5.3270   21.7180 C.3   595  HIS595      0.1656
     60  C         10.6640    5.4420   20.9320 C.2   595  HIS595      0.2291
     61  O         11.5080    6.2890   21.2380 O.2   595  HIS595     -0.2864
     62  CB         9.6230    5.1020   23.2120 C.3   595  HIS595      0.0771
     63  CG         8.4640    5.4750   24.0900 C.ar  595  HIS595      0.0820
     64  ND1        8.1360    6.7850   24.3000 N.ar  595  HIS595     -0.2267
     65  CD2        7.7190    4.4960   24.6490 C.ar  595  HIS595      0.1154
     66  CE1        7.0220    6.6460   25.1010 C.ar  595  HIS595      0.1986
     67  NE2        6.7460    5.2520   25.3270 N.ar  595  HIS595     -0.2212
     68  N          5.6840   10.4450   19.6020 N.3   605  ILE605     -0.1231
     69  CA         5.5240    9.9240   20.9550 C.3   605  ILE605      0.1678
     70  C          6.7620   10.3840   21.7350 C.2   605  ILE605      0.2434
     71  O          7.8620   10.4200   21.1900 O.2   605  ILE605     -0.2733
     72  CB         5.4210    8.3780   20.9140 C.3   605  ILE605      0.0265
     73  CG1        4.1600    7.9850   20.1320 C.3   605  ILE605      0.0019
     74  CG2        5.4030    7.7970   22.3280 C.3   605  ILE605      0.0020
     75  CD1        3.9990    6.4960   19.8750 C.3   605  ILE605      0.0001
     76  N          6.5950   10.7440   23.0180 N.am  606  PRO606     -0.2718
     77  CA         7.6790   11.2190   23.8840 C.3   606  PRO606      0.1535
     78  C          9.0130   10.4790   23.8530 C.2   606  PRO606      0.2599
     79  O          9.0670    9.2530   23.7370 O.2   606  PRO606     -0.2715
     80  CB         7.0440   11.1880   25.2730 C.3   606  PRO606      0.0310
     81  CG         5.6340   11.5150   24.9900 C.3   606  PRO606      0.0237
     82  CD         5.3410   10.6440   23.7840 C.3   606  PRO606      0.0939
     83  N         10.0860   11.2590   23.9670 N.am  607  ASP607     -0.1958
     84  CA        11.4530   10.7510   23.9990 C.3   607  ASP607      0.1840
     85  C         11.7500   10.4660   25.4740 C.2   607  ASP607      0.2621
     86  O         11.8970   11.3900   26.2810 O.2   607  ASP607     -0.2715
     87  CB        12.4100   11.8200   23.4510 C.3   607  ASP607      0.1450
     88  CG        13.8650   11.3830   23.4670 C.2   607  ASP607      0.3671
     89  OD1       14.7010   12.1280   22.9110 O.co2 607  ASP607     -0.2456
     90  OD2       14.1850   10.3140   24.0300 O.co2 607  ASP607     -0.2456
     91  N         11.8240    9.1870   25.8230 N.am  608  LEU608     -0.1977
     92  CA        12.0720    8.7920   27.2010 C.3   608  LEU608      0.1596
     93  C         13.3710    9.3450   27.7760 C.2   608  LEU608      0.2287
     94  O         13.5610    9.3500   28.9910 O.2   608  LEU608     -0.2864
     95  CB        12.0480    7.2660   27.3200 C.3   608  LEU608      0.0297
     96  CG        10.7340    6.6050   26.8840 C.3   608  LEU608      0.0022
     97  CD1       10.7050    5.1690   27.3790 C.3   608  LEU608      0.0001
     98  CD2        9.5460    7.3670   27.4490 C.3   608  LEU608      0.0001
     99  N         12.3040   12.7280   29.5080 N.3   611  SER611     -0.1202
    100  CA        11.2500   12.7470   30.5200 C.3   611  SER611      0.2020
    101  C         11.6240   13.6230   31.7130 C.2   611  SER611      0.2619
    102  O         12.7880   13.6910   32.1040 O.2   611  SER611     -0.2717
    103  CB        10.9530   11.3260   31.0080 C.3   611  SER611      0.2103
    104  OG        10.4440   10.5200   29.9590 O.3   611  SER611     -0.2182
    105  N         10.6300   14.2910   32.2880 N.am  612  SER612     -0.1951
    106  CA        10.8630   15.1500   33.4440 C.3   612  SER612      0.1924
    107  C         11.1850   14.2860   34.6560 C.2   612  SER612      0.2314
    108  O         11.0110   13.0690   34.6250 O.2   612  SER612     -0.2863
    109  CB         9.6220   15.9970   33.7410 C.3   612  SER612      0.2116
    110  OG         8.5280   15.1810   34.1270 O.3   612  SER612     -0.2180
    111  N          8.1040   12.5750   36.0150 N.3   615  THR615     -0.1218
    112  CA         7.7720   11.4170   35.1900 C.3   615  THR615      0.1862
    113  C          8.6390   10.2140   35.5710 C.2   615  THR615      0.2287
    114  O          8.1360    9.1000   35.7200 O.2   615  THR615     -0.2866
    115  CB         7.9680   11.7390   33.6900 C.3   615  THR615      0.1770
    116  OG1        6.9690   12.6810   33.2740 O.3   615  THR615     -0.2211
    117  CG2        7.8640   10.4700   32.8430 C.3   615  THR615      0.0375
    118  N          7.7250    6.2940   36.9500 N.3   619  PHE619     -0.1241
    119  CA         8.0110    5.3350   35.8870 C.3   619  PHE619      0.1605
    120  C          7.2650    4.0140   36.0900 C.2   619  PHE619      0.2264
    121  O          6.6590    3.4910   35.1550 O.2   619  PHE619     -0.2867
    122  CB         9.5240    5.1020   35.8140 C.3   619  PHE619      0.0534
    123  CG        10.0100    4.6330   34.4680 C.ar  619  PHE619     -0.0203
    124  CD1       10.1810    3.2780   34.2050 C.ar  619  PHE619     -0.0042
    125  CD2       10.3090    5.5540   33.4660 C.ar  619  PHE619     -0.0042
    126  CE1       10.6460    2.8440   32.9630 C.ar  619  PHE619     -0.0003
    127  CE2       10.7730    5.1330   32.2220 C.ar  619  PHE619     -0.0003
    128  CZ        10.9420    3.7750   31.9690 C.ar  619  PHE619     -0.0000
    129  N          3.4290    4.5100   35.6300 N.3   622  ILE622     -0.1231
    130  CA         3.0750    4.6680   34.2250 C.3   622  ILE622      0.1692
    131  C          3.1340    3.3490   33.4650 C.2   622  ILE622      0.2591
    132  O          2.1610    2.9430   32.8290 O.2   622  ILE622     -0.2718
    133  CB         4.0220    5.6680   33.5240 C.3   622  ILE622      0.0266
    134  CG1        3.7970    7.0760   34.0820 C.3   622  ILE622      0.0019
    135  CG2        3.7990    5.6310   32.0060 C.3   622  ILE622      0.0020
    136  CD1        4.8240    8.0870   33.6160 C.3   622  ILE622      0.0001
    137  N          4.2830    2.6830   33.5490 N.am  623  VAL623     -0.1980
    138  CA         4.5180    1.4330   32.8380 C.3   623  VAL623      0.1595
    139  C          3.7590    0.1980   33.3300 C.2   623  VAL623      0.2287
    140  O          3.3220   -0.6170   32.5180 O.2   623  VAL623     -0.2864
    141  CB         6.0280    1.1090   32.8220 C.3   623  VAL623      0.0276
    142  CG1        6.2910   -0.1590   32.0200 C.3   623  VAL623      0.0022
    143  CG2        6.7950    2.2830   32.2400 C.3   623  VAL623      0.0022
    144  N         -0.9360    6.5100   32.5690 N.3   628  LEU628     -0.1245
    145  CA        -1.1430    7.3090   31.3590 C.3   628  LEU628      0.1561
    146  C         -1.9600    6.5610   30.3110 C.2   628  LEU628      0.2260
    147  O         -1.9450    6.9050   29.1280 O.2   628  LEU628     -0.2867
    148  CB         0.2120    7.7150   30.7710 C.3   628  LEU628      0.0270
    149  CG         0.7680    9.1090   31.0840 C.3   628  LEU628      0.0019
    150  CD1        0.3350    9.5820   32.4620 C.3   628  LEU628      0.0001
    151  CD2        2.2830    9.0670   30.9670 C.3   628  LEU628      0.0001
    152  N         -4.2130    8.2700   27.8120 N.3   631  LEU631     -0.1231
    153  CA        -3.5060    8.9960   26.7640 C.3   631  LEU631      0.1693
    154  C         -2.9290    8.0360   25.7220 C.2   631  LEU631      0.2593
    155  O         -2.3200    8.4640   24.7410 O.2   631  LEU631     -0.2718
    156  CB        -2.3870    9.8430   27.3680 C.3   631  LEU631      0.0284
    157  CG        -2.8570   10.9230   28.3460 C.3   631  LEU631      0.0019
    158  CD1       -1.6580   11.6580   28.9110 C.3   631  LEU631      0.0001
    159  CD2       -3.7910   11.8910   27.6330 C.3   631  LEU631      0.0001
    160  N         -3.1170    6.7380   25.9400 N.am  632  GLY632     -0.1942
    161  CA        -2.6210    5.7600   24.9900 C.3   632  GLY632      0.2014
    162  C         -1.3760    4.9990   25.4010 C.2   632  GLY632      0.2639
    163  O         -0.9450    4.0990   24.6850 O.2   632  GLY632     -0.2714
    164  N         -0.7800    5.3650   26.5320 N.am  633  MET633     -0.1963
    165  CA         0.4080    4.6700   27.0180 C.3   633  MET633      0.1722
    166  C         -0.1040    3.4460   27.7650 C.2   633  MET633      0.2458
    167  O         -0.6400    3.5590   28.8660 O.2   633  MET633     -0.2730
    168  CB         1.2140    5.5790   27.9510 C.3   633  MET633      0.0427
    169  CG         2.3210    4.8880   28.7340 C.3   633  MET633      0.0599
    170  SD         3.4040    3.7650   27.7950 S.3   633  MET633     -0.1393
    171  CE         3.9150    2.6920   29.1460 C.3   633  MET633      0.0692
    172  N          0.0570    2.2550   27.1680 N.am  634  PRO634     -0.2727
    173  CA        -0.3960    0.9950   27.7620 C.3   634  PRO634      0.1402
    174  C          0.2890    0.6210   29.0660 C.2   634  PRO634      0.2269
    175  O          1.3640    1.1260   29.3890 O.2   634  PRO634     -0.2865
    176  CB        -0.0940   -0.0390   26.6720 C.3   634  PRO634      0.0296
    177  CG         0.0640    0.7790   25.4080 C.3   634  PRO634      0.0237
    178  CD         0.7620    2.0050   25.9000 C.3   634  PRO634      0.0939
    179  N          1.9890   -2.4470   31.0720 N.3   636  PHE636     -0.1241
    180  CA         2.6050   -3.7210   30.7140 C.3   636  PHE636      0.1605
    181  C          2.7210   -4.6920   31.8790 C.2   636  PHE636      0.2264
    182  O          3.6190   -5.5310   31.9010 O.2   636  PHE636     -0.2867
    183  CB         3.9950   -3.4910   30.1160 C.3   636  PHE636      0.0534
    184  CG         3.9770   -2.7240   28.8270 C.ar  636  PHE636     -0.0203
    185  CD1        3.7460   -1.3520   28.8200 C.ar  636  PHE636     -0.0042
    186  CD2        4.1590   -3.3810   27.6140 C.ar  636  PHE636     -0.0042
    187  CE1        3.6940   -0.6450   27.6240 C.ar  636  PHE636     -0.0003
    188  CE2        4.1090   -2.6830   26.4110 C.ar  636  PHE636     -0.0003
    189  CZ         3.8750   -1.3130   26.4160 C.ar  636  PHE636     -0.0000
    190  N          5.6490   -7.5060   32.1100 N.3   640  LEU640     -0.1245
    191  CA         6.8690   -7.0970   32.7880 C.3   640  LEU640      0.1561
    192  C          6.7560   -6.9850   34.3070 C.2   640  LEU640      0.2260
    193  O          5.7250   -6.5760   34.8360 O.2   640  LEU640     -0.2867
    194  CB         7.3360   -5.7590   32.2100 C.3   640  LEU640      0.0270
    195  CG         7.5880   -5.7540   30.6970 C.3   640  LEU640      0.0019
    196  CD1        7.8360   -4.3390   30.2090 C.3   640  LEU640      0.0001
    197  CD2        8.7780   -6.6480   30.3830 C.3   640  LEU640      0.0001
    198  N         14.7960   -1.3080   32.4540 N.3   648  ILE648     -0.1245
    199  CA        14.5180   -0.4900   31.2770 C.3   648  ILE648      0.1561
    200  C         14.8370    0.9730   31.5930 C.2   648  ILE648      0.2260
    201  O         15.4780    1.6670   30.8000 O.2   648  ILE648     -0.2867
    202  CB        13.0340   -0.6100   30.8490 C.3   648  ILE648      0.0252
    203  CG1       12.7560   -2.0310   30.3400 C.3   648  ILE648      0.0019
    204  CG2       12.7140    0.4050   29.7640 C.3   648  ILE648      0.0019
    205  CD1       11.3050   -2.2880   29.9740 C.3   648  ILE648      0.0001
@<TRIPOS>BOND
     1     4     3    2
     2     3     2    1
     3     2     1    1
     4     2     5    1
     5     5     6    1
     6     6     7    1
     7     8     7    1
     8     8     9    2
     9    11     9    1
    10    48    47    2
    11     9    10    1
    12    50    49    1
    13    49    46    1
    14    49    51    1
    15    46    47    1
    16    46    45    1
    17    47    52   am
    18    15    14    2
    19    13    16    1
    20    13    14    1
    21    13    12    1
    22    68    69    1
    23    52    53    1
    24    75    73    1
    25    55    54    2
    26    53    54    1
    27    53    56    1
    28    14    17   am
    29    73    72    1
    30    57    56    1
    31    54    58   am
    32    20    19    2
    33    19    18    1
    34    72    69    1
    35    72    74    1
    36    60    61    2
    37    60    59    1
    38    69    70    1
    39    17    18    1
    40    71    70    2
    41    58    59    1
    42    18    21    1
    43    59    62    1
    44    70    76   am
    45    42    41    2
    46    41    40    1
    47    89    88   ar
    48    21    22    1
    49    76    82    1
    50    76    77    1
    51    62    63    1
    52    87    88    1
    53    87    84    1
    54    88    90   ar
    55    22    23    1
    56    79    78    2
    57    82    81    1
    58    78    77    1
    59    78    83   am
    60    77    80    1
    61    40    39    1
    62    40    43    1
    63    31    30    2
    64    28    29    1
    65    83    84    1
    66    84    85    1
    67    39    30   am
    68    63    64   ar
    69    63    65   ar
    70    30    29    1
    71    64    66   ar
    72    29    32    1
    73    65    67   ar
    74   163   162    2
    75   155   154    2
    76    23    24    1
    77   161   162    1
    78   161   160    1
    79    81    80    1
    80    66    67   ar
    81    43    44    1
    82    24    25    2
    83   162   164   am
    84   177   178    1
    85   177   176    1
    86    85    91   am
    87    85    86    2
    88   154   160   am
    89   154   153    1
    90    32    33    1
    91    91    92    1
    92   178   172    1
    93    34    33   ar
    94    34    36   ar
    95    33    35   ar
    96    36    38   ar
    97   188   189   ar
    98   188   186   ar
    99   189   187   ar
   100    25    27    1
   101    25    26    1
   102   164   165    1
   103    35    37   ar
   104   176   173    1
   105    38    37   ar
   106   153   156    1
   107   153   152    1
   108    96    95    1
   109    96    97    1
   110    96    98    1
   111   165   166    1
   112   165   168    1
   113   172   173    1
   114   172   166   am
   115    92    95    1
   116    92    93    1
   117   156   157    1
   118   186   184   ar
   119   187   185   ar
   120   159   157    1
   121   173   174    1
   122   166   167    2
   123    93    94    2
   124   170   169    1
   125   170   171    1
   126   168   169    1
   127   157   158    1
   128   185   184   ar
   129   184   183    1
   130   174   175    2
   131   147   146    2
   132    99   100    1
   133   204   202    1
   134   104   103    1
   135   205   203    1
   136   183   180    1
   137   196   195    1
   138   146   145    1
   139   203   202    1
   140   197   195    1
   141   100   103    1
   142   100   101    1
   143   195   194    1
   144   180   179    1
   145   180   181    1
   146   148   149    1
   147   148   145    1
   148   201   200    2
   149   202   199    1
   150   151   149    1
   151   149   150    1
   152   199   200    1
   153   199   198    1
   154   145   144    1
   155   101   102    2
   156   101   105   am
   157   181   182    2
   158   128   127   ar
   159   128   126   ar
   160   135   133    1
   161   142   141    1
   162   190   191    1
   163   194   191    1
   164   127   125   ar
   165   143   141    1
   166   105   106    1
   167   140   139    2
   168   191   192    1
   169   141   138    1
   170   132   131    2
   171   138   139    1
   172   138   137    1
   173   117   115    1
   174   126   124   ar
   175   116   115    1
   176   106   109    1
   177   106   107    1
   178   131   137   am
   179   131   130    1
   180   125   123   ar
   181   133   134    1
   182   133   130    1
   183   136   134    1
   184   115   112    1
   185   109   110    1
   186   124   123   ar
   187   130   129    1
   188   192   193    2
   189   123   122    1
   190   108   107    2
   191   121   120    2
   192   112   113    1
   193   112   111    1
   194   113   114    2
   195   122   119    1
   196   119   120    1
   197   119   118    1
