@<TRIPOS>MOLECULE
tmp/1kvkA00.pdb
 165 155 0 0 0
SMALL
GASTEIGER

@<TRIPOS>ATOM
      1  N         50.1040   36.2500   12.3650 N.3    13  LYS13      -0.1245
      2  CA        50.1140   37.4140   11.4830 C.3    13  LYS13       0.1561
      3  C         49.2560   38.5890   11.9290 C.2    13  LYS13       0.2260
      4  O         48.3990   38.4470   12.7800 O.2    13  LYS13      -0.2867
      5  CB        49.7150   36.9780   10.0620 C.3    13  LYS13       0.0271
      6  CG        48.3810   37.4840    9.5340 C.3    13  LYS13       0.0035
      7  CD        47.2180   36.6970   10.0620 C.3    13  LYS13       0.0206
      8  CE        45.9780   36.9360    9.2030 C.3    13  LYS13       0.1093
      9  NZ        44.7380   36.4140    9.8620 N.3    13  LYS13      -0.1314
     10  N         54.0850   29.6010   17.5640 N.3    37  THR37      -0.1218
     11  CA        53.4120   28.3470   17.8990 C.3    37  THR37       0.1862
     12  C         54.4900   27.2890   17.7730 C.2    37  THR37       0.2287
     13  O         55.1590   27.2030   16.7420 O.2    37  THR37      -0.2866
     14  CB        52.2910   27.9990   16.9110 C.3    37  THR37       0.1770
     15  OG1       51.1400   28.7900   17.2010 O.3    37  THR37      -0.2211
     16  CG2       51.9270   26.5260   17.0060 C.3    37  THR37       0.0375
     17  N         47.0140   18.9260   22.6810 N.3    53  LEU53      -0.1245
     18  CA        46.8190   20.3710   22.5660 C.3    53  LEU53       0.1561
     19  C         46.4900   21.0400   23.9110 C.2    53  LEU53       0.2260
     20  O         45.3230   21.3230   24.1950 O.2    53  LEU53      -0.2867
     21  CB        45.6780   20.6430   21.5870 C.3    53  LEU53       0.0270
     22  CG        45.7200   19.8190   20.3000 C.3    53  LEU53       0.0019
     23  CD1       44.4150   19.9650   19.5480 C.3    53  LEU53       0.0001
     24  CD2       46.8800   20.2720   19.4470 C.3    53  LEU53       0.0001
     25  N         46.7060   24.1510   25.2320 N.3    55  ASN55      -0.1225
     26  CA        45.8750   25.3410   25.1040 C.3    55  ASN55       0.1785
     27  C         44.3960   24.9580   25.1560 C.2    55  ASN55       0.2597
     28  O         43.7110   25.2350   26.1360 O.2    55  ASN55      -0.2718
     29  CB        46.1880   26.0490   23.7830 C.3    55  ASN55       0.1169
     30  CG        47.6400   26.4740   23.6820 C.2    55  ASN55       0.2627
     31  OD1       48.1810   26.6130   22.5870 O.2    55  ASN55      -0.2716
     32  ND2       48.2740   26.6960   24.8240 N.am   55  ASN55      -0.0877
     33  N         43.9100   24.3090   24.1060 N.am   56  VAL56      -0.1980
     34  CA        42.5140   23.8960   24.0440 C.3    56  VAL56       0.1595
     35  C         42.2280   22.6810   24.9440 C.2    56  VAL56       0.2287
     36  O         41.3030   21.9040   24.6950 O.2    56  VAL56      -0.2864
     37  CB        42.1270   23.5730   22.5940 C.3    56  VAL56       0.0276
     38  CG1       40.6550   23.2230   22.5070 C.3    56  VAL56       0.0022
     39  CG2       42.4490   24.7640   21.7070 C.3    56  VAL56       0.0022
     40  N         34.8700   23.6210   18.3860 N.3    88  ASN88      -0.1225
     41  CA        35.0550   24.4820   17.2230 C.3    88  ASN88       0.1785
     42  C         36.4970   24.1820   16.8350 C.2    88  ASN88       0.2597
     43  O         36.9350   24.4410   15.7120 O.2    88  ASN88      -0.2718
     44  CB        34.9200   25.9580   17.6090 C.3    88  ASN88       0.1169
     45  CG        33.6000   26.2660   18.2850 C.2    88  ASN88       0.2627
     46  OD1       32.5360   26.1810   17.6690 O.2    88  ASN88      -0.2716
     47  ND2       33.6610   26.6220   19.5650 N.am   88  ASN88      -0.0877
     48  N         37.2210   23.6280   17.8060 N.am   89  GLU89      -0.1979
     49  CA        38.6160   23.2460   17.6510 C.3    89  GLU89       0.1602
     50  C         38.7000   21.7420   17.4300 C.2    89  GLU89       0.2287
     51  O         39.7670   21.1390   17.5630 O.2    89  GLU89      -0.2864
     52  CB        39.4050   23.6120   18.9030 C.3    89  GLU89       0.0415
     53  CG        38.7560   23.1220   20.1770 C.3    89  GLU89       0.1163
     54  CD        38.0660   24.2340   20.9410 C.2    89  GLU89       0.3649
     55  OE1       37.4280   23.9350   21.9750 O.co2  89  GLU89      -0.2457
     56  OE2       38.1680   25.4050   20.5120 O.co2  89  GLU89      -0.2457
     57  N         40.4280   20.7870   14.1400 N.3    92  SER92      -0.1217
     58  CA        41.8800   20.7320   14.2030 C.3    92  SER92       0.1889
     59  C         42.3720   19.2950   14.3220 C.2    92  SER92       0.2288
     60  O         43.2990   18.8860   13.6200 O.2    92  SER92      -0.2866
     61  CB        42.3790   21.5480   15.3880 C.3    92  SER92       0.2089
     62  OG        42.0620   22.9150   15.2130 O.3    92  SER92      -0.2183
     63  N         51.7540   20.5860   21.0270 N.3   117  VAL117     -0.1245
     64  CA        51.5860   21.9220   20.4540 C.3   117  VAL117      0.1561
     65  C         51.2610   22.9600   21.5250 C.2   117  VAL117      0.2260
     66  O         50.3820   22.7500   22.3570 O.2   117  VAL117     -0.2867
     67  CB        50.4520   21.9700   19.3920 C.3   117  VAL117      0.0252
     68  CG1       50.3230   23.3840   18.8450 C.3   117  VAL117      0.0019
     69  CG2       50.7430   21.0130   18.2500 C.3   117  VAL117      0.0019
     70  N         51.2190   27.4200   21.7050 N.3   119  SER119     -0.1217
     71  CA        51.5450   28.7170   21.1230 C.3   119  SER119      0.1889
     72  C         51.3300   29.8580   22.0890 C.2   119  SER119      0.2288
     73  O         50.7020   29.7080   23.1340 O.2   119  SER119     -0.2866
     74  CB        50.7440   28.9870   19.8370 C.3   119  SER119      0.2089
     75  OG        49.3850   28.6140   19.9460 O.3   119  SER119     -0.2183
     76  N         50.1190   32.5780   20.7930 N.3   121  LEU121     -0.1245
     77  CA        49.0580   33.2610   20.0640 C.3   121  LEU121      0.1561
     78  C         47.6870   33.0490   20.6350 C.2   121  LEU121      0.2260
     79  O         47.3040   31.9280   20.9390 O.2   121  LEU121     -0.2867
     80  CB        49.0210   32.7940   18.6130 C.3   121  LEU121      0.0270
     81  CG        50.1360   33.2350   17.6790 C.3   121  LEU121      0.0019
     82  CD1       49.9990   32.5010   16.3630 C.3   121  LEU121      0.0001
     83  CD2       50.0670   34.7340   17.4860 C.3   121  LEU121      0.0001
     84  N         43.9400   32.4110   20.4460 N.3   123  PRO123     -0.2102
     85  CA        43.1040   31.8840   19.3640 C.3   123  PRO123      0.1504
     86  C         41.9440   32.8220   18.9920 C.2   123  PRO123      0.2576
     87  O         41.4780   33.6160   19.8160 O.2   123  PRO123     -0.2718
     88  CB        42.6240   30.5550   19.9320 C.3   123  PRO123      0.0282
     89  CG        42.4700   30.8750   21.3940 C.3   123  PRO123      0.0208
     90  CD        43.7400   31.6520   21.6920 C.3   123  PRO123      0.0893
     91  N         41.5030   32.7330   17.7390 N.am  124  GLY124     -0.1943
     92  CA        40.3900   33.5410   17.2600 C.3   124  GLY124      0.2014
     93  C         40.5230   35.0530   17.2080 C.2   124  GLY124      0.2639
     94  O         39.6090   35.7290   16.7360 O.2   124  GLY124     -0.2714
     95  N         41.6380   35.6010   17.6800 N.am  125  ALA125     -0.1963
     96  CA        41.8120   37.0530   17.6720 C.3   125  ALA125      0.1728
     97  C         42.2550   37.5900   16.3090 C.2   125  ALA125      0.2617
     98  O         42.6900   38.7400   16.1910 O.2   125  ALA125     -0.2715
     99  CB        42.8090   37.4640   18.7480 C.3   125  ALA125      0.0334
    100  N         42.1420   36.7470   15.2850 N.am  126  GLY126     -0.1940
    101  CA        42.5190   37.1480   13.9430 C.3   126  GLY126      0.2014
    102  C         44.0040   37.1210   13.6210 C.2   126  GLY126      0.2639
    103  O         44.4030   37.6310   12.5730 O.2   126  GLY126     -0.2714
    104  N         44.8280   36.5430   14.5000 N.am  127  LEU127     -0.1963
    105  CA        46.2670   36.4800   14.2610 C.3   127  LEU127      0.1728
    106  C         46.6880   35.2050   13.5340 C.2   127  LEU127      0.2617
    107  O         47.8580   34.8290   13.5640 O.2   127  LEU127     -0.2715
    108  CB        47.0440   36.5740   15.5710 C.3   127  LEU127      0.0311
    109  CG        46.9370   37.7880   16.5090 C.3   127  LEU127      0.0022
    110  CD1       46.3820   39.0060   15.7800 C.3   127  LEU127      0.0001
    111  CD2       46.0550   37.4100   17.6790 C.3   127  LEU127      0.0001
    112  N         45.7170   34.5520   12.8950 N.am  128  GLY128     -0.1940
    113  CA        45.9570   33.3340   12.1380 C.3   128  GLY128      0.2014
    114  C         46.6560   32.1960   12.8540 C.2   128  GLY128      0.2640
    115  O         47.5730   31.5910   12.3080 O.2   128  GLY128     -0.2714
    116  N         46.2060   31.8720   14.0580 N.am  129  SER129     -0.1935
    117  CA        46.8510   30.8150   14.8060 C.3   129  SER129      0.2055
    118  C         46.6340   29.4210   14.2440 C.2   129  SER129      0.2643
    119  O         47.4560   28.5350   14.4720 O.2   129  SER129     -0.2714
    120  CB        46.4170   30.8640   16.2640 C.3   129  SER129      0.2130
    121  OG        45.0160   30.7670   16.3490 O.3   129  SER129     -0.2179
    122  N         45.5490   29.2110   13.5060 N.am  130  SER130     -0.1949
    123  CA        45.2990   27.8850   12.9440 C.3   130  SER130      0.1924
    124  C         46.2520   27.6010   11.7850 C.2   130  SER130      0.2314
    125  O         46.5920   26.4530   11.5250 O.2   130  SER130     -0.2863
    126  CB        43.8430   27.7380   12.4770 C.3   130  SER130      0.2116
    127  OG        43.5830   28.4190   11.2650 O.3   130  SER130     -0.2180
    128  N         49.5430   26.6980   13.1240 N.3   133  TYR133     -0.1241
    129  CA        49.4080   25.3410   13.6140 C.3   133  TYR133      0.1605
    130  C         49.5320   24.3480   12.4660 C.2   133  TYR133      0.2264
    131  O         50.2130   23.3280   12.5900 O.2   133  TYR133     -0.2867
    132  CB        48.0510   25.2040   14.3200 C.3   133  TYR133      0.0534
    133  CG        47.5310   23.7970   14.4380 C.ar  133  TYR133     -0.0201
    134  CD1       46.5760   23.3140   13.5450 C.ar  133  TYR133     -0.0009
    135  CD2       47.9950   22.9470   15.4340 C.ar  133  TYR133     -0.0009
    136  CE1       46.0880   22.0150   13.6440 C.ar  133  TYR133      0.0417
    137  CE2       47.5210   21.6490   15.5430 C.ar  133  TYR133      0.0417
    138  CZ        46.5660   21.1870   14.6490 C.ar  133  TYR133      0.1957
    139  OH        46.0770   19.9090   14.7780 O.3   133  TYR133     -0.2866
    140  N         39.8940   23.0580    8.0450 N.3   180  ILE180     -0.1231
    141  CA        39.3810   23.8080    9.1810 C.3   180  ILE180      0.1692
    142  C         38.6390   25.1030    8.8370 C.2   180  ILE180      0.2592
    143  O         37.7510   25.5300    9.5830 O.2   180  ILE180     -0.2718
    144  CB        40.5190   24.1070   10.2040 C.3   180  ILE180      0.0266
    145  CG1       40.1740   25.3340   11.0440 C.3   180  ILE180      0.0019
    146  CG2       41.8340   24.2980    9.4920 C.3   180  ILE180      0.0020
    147  CD1       41.2540   25.6940   12.0230 C.3   180  ILE180      0.0001
    148  N         38.9840   25.7240    7.7150 N.am  181  HIS181     -0.1976
    149  CA        38.3300   26.9710    7.3180 C.3   181  HIS181      0.1656
    150  C         37.4060   26.8230    6.1070 C.2   181  HIS181      0.2291
    151  O         36.4410   27.5760    5.9530 O.2   181  HIS181     -0.2864
    152  CB        39.3890   28.0480    7.0540 C.3   181  HIS181      0.0771
    153  CG        39.9340   28.6750    8.3000 C.ar  181  HIS181      0.0820
    154  ND1       40.5580   27.9480    9.2900 N.ar  181  HIS181     -0.2267
    155  CD2       39.9680   29.9670    8.7080 C.ar  181  HIS181      0.1154
    156  CE1       40.9510   28.7610   10.2540 C.ar  181  HIS181      0.1986
    157  NE2       40.6040   29.9920    9.9250 N.ar  181  HIS181     -0.2212
    158  N         47.4150   33.6310    5.4140 N.3   188  ASP188     -0.1239
    159  CA        47.8190   33.1340    6.7290 C.3   188  ASP188      0.1674
    160  C         48.9270   32.0810    6.6920 C.2   188  ASP188      0.2266
    161  O         49.9650   32.2280    7.3390 O.2   188  ASP188     -0.2867
    162  CB        46.6180   32.5360    7.4590 C.3   188  ASP188      0.1410
    163  CG        45.5220   33.5400    7.6890 C.2   188  ASP188      0.3668
    164  OD1       44.3400   33.1600    7.6140 O.co2 188  ASP188     -0.2456
    165  OD2       45.8450   34.7100    7.9490 O.co2 188  ASP188     -0.2456
@<TRIPOS>BOND
     1   158   159    1
     2   151   150    2
     3   150   149    1
     4   160   159    1
     5   160   161    2
     6   159   162    1
     7   152   149    1
     8   152   153    1
     9   149   148    1
    10   162   163    1
    11   164   163   ar
    12   163   165   ar
    13   148   142   am
    14   140   141    1
    15   153   155   ar
    16   153   154   ar
    17   155   157   ar
    18   142   141    1
    19   142   143    2
    20   141   144    1
    21     8     9    1
    22     8     7    1
    23   154   156   ar
    24   146   144    1
    25     6     5    1
    26     6     7    1
    27   157   156   ar
    28     5     2    1
    29   144   145    1
    30   145   147    1
    31   127   126    1
    32     2     3    1
    33     2     1    1
    34   125   124    2
    35   124   123    1
    36     3     4    2
    37   113   114    1
    38   113   112    1
    39   115   114    2
    40   130   131    2
    41   130   129    1
    42   126   123    1
    43   103   102    2
    44   114   116   am
    45   112   106   am
    46   123   122    1
    47   128   129    1
    48   122   118   am
    49   106   107    2
    50   106   105    1
    51   134   136   ar
    52   134   133   ar
    53   129   132    1
    54    60    59    2
    55   102   101    1
    56   102   104   am
    57   136   138   ar
    58   101   100    1
    59   116   117    1
    60    57    58    1
    61    58    59    1
    62    58    61    1
    63   118   119    2
    64   118   117    1
    65   105   104    1
    66   105   108    1
    67   132   133    1
    68   133   135   ar
    69   138   139    1
    70   138   137   ar
    71   117   120    1
    72    62    61    1
    73   100    97   am
    74   135   137   ar
    75   108   109    1
    76    43    42    2
    77   110   109    1
    78    98    97    2
    79   120   121    1
    80    97    96    1
    81    82    81    1
    82   109   111    1
    83    94    93    2
    84    13    12    2
    85    42    41    1
    86    42    48   am
    87    14    16    1
    88    14    15    1
    89    14    11    1
    90    93    92    1
    91    93    95   am
    92    41    44    1
    93    41    40    1
    94    92    91    1
    95    50    51    2
    96    50    49    1
    97    83    81    1
    98    10    11    1
    99    44    45    1
   100    49    48    1
   101    49    52    1
   102    46    45    2
   103    96    95    1
   104    96    99    1
   105    81    80    1
   106    91    86   am
   107    12    11    1
   108    69    67    1
   109    45    47   am
   110    80    77    1
   111    68    67    1
   112    52    53    1
   113    86    85    1
   114    86    87    2
   115    85    88    1
   116    85    84    1
   117    67    64    1
   118    24    22    1
   119    23    22    1
   120    74    75    1
   121    74    71    1
   122    88    89    1
   123    77    78    1
   124    77    76    1
   125    53    54    1
   126    22    21    1
   127    84    90    1
   128    64    63    1
   129    64    65    1
   130    56    54   ar
   131    78    79    2
   132    54    55   ar
   133    71    70    1
   134    71    72    1
   135    89    90    1
   136    65    66    2
   137    21    18    1
   138    39    37    1
   139    72    73    2
   140    38    37    1
   141    18    17    1
   142    18    19    1
   143    31    30    2
   144    37    34    1
   145    30    29    1
   146    30    32   am
   147    29    26    1
   148    19    20    2
   149    34    33    1
   150    34    35    1
   151    33    27   am
   152    36    35    2
   153    26    27    1
   154    26    25    1
   155    27    28    2
