@<TRIPOS>MOLECULE
tmp/1kvlB00.pdb
 145 134 0 0 0
SMALL
GASTEIGER

@<TRIPOS>ATOM
      1  N         77.1880    1.2540   29.9230 N.3    61  GLY61      -0.1225
      2  CA        75.8880    1.7850   29.4680 C.3    61  GLY61       0.1811
      3  C         74.9100    0.7710   28.9000 C.2    61  GLY61       0.2280
      4  O         73.7200    1.1220   28.6910 O.2    61  GLY61      -0.2866
      5  N         71.6910    0.3520   30.6510 N.3    64  LYS64      -0.1245
      6  CA        70.5150    1.1900   30.3800 C.3    64  LYS64       0.1561
      7  C         69.4010    0.3990   29.6840 C.2    64  LYS64       0.2260
      8  O         68.2360    0.7990   29.7840 O.2    64  LYS64      -0.2867
      9  CB        70.9110    2.3980   29.5310 C.3    64  LYS64       0.0271
     10  CG        71.8400    3.3820   30.2780 C.3    64  LYS64       0.0035
     11  CD        72.2770    4.4750   29.3610 C.3    64  LYS64       0.0206
     12  CE        73.0520    5.5540   30.0840 C.3    64  LYS64       0.1093
     13  NZ        74.4510    5.1090   30.4030 N.3    64  LYS64      -0.1314
     14  N         75.9710   14.4490   31.1120 N.3   116  LEU116     -0.1231
     15  CA        76.4470   13.0970   30.8450 C.3   116  LEU116      0.1693
     16  C         76.6460   12.3080   32.1360 C.2   116  LEU116      0.2591
     17  O         76.2650   11.1530   32.2380 O.2   116  LEU116     -0.2718
     18  CB        77.7460   13.1510   30.0460 C.3   116  LEU116      0.0284
     19  CG        78.4740   11.8150   29.8010 C.3   116  LEU116      0.0019
     20  CD1       77.5550   10.7930   29.0820 C.3   116  LEU116      0.0001
     21  CD2       79.7270   12.0870   28.9700 C.3   116  LEU116      0.0001
     22  N         77.2530   12.9540   33.1310 N.am  117  GLN117     -0.1979
     23  CA        77.5200   12.3060   34.4080 C.3   117  GLN117      0.1601
     24  C         76.9470   13.0940   35.5640 C.2   117  GLN117      0.2287
     25  O         76.8510   14.3190   35.5100 O.2   117  GLN117     -0.2864
     26  CB        79.0270   12.2370   34.6820 C.3   117  GLN117      0.0394
     27  CG        79.8830   11.5140   33.6780 C.3   117  GLN117      0.0908
     28  CD        79.6100   10.0400   33.6430 C.2   117  GLN117      0.2608
     29  OE1       78.9090    9.4940   34.5040 O.2   117  GLN117     -0.2717
     30  NE2       80.1600    9.3710   32.6370 N.am  117  GLN117     -0.0878
     31  N         72.6350   12.4740   25.3760 N.3   147  TYR147     -0.1241
     32  CA        72.9180   11.2340   26.1050 C.3   147  TYR147      0.1605
     33  C         73.4080   11.5530   27.5230 C.2   147  TYR147      0.2264
     34  O         74.3490   12.3100   27.6850 O.2   147  TYR147     -0.2867
     35  CB        73.9190   10.3730   25.3340 C.3   147  TYR147      0.0534
     36  CG        74.1430    9.0040   25.9670 C.ar  147  TYR147     -0.0201
     37  CD1       75.2980    8.7460   26.7360 C.ar  147  TYR147     -0.0009
     38  CD2       73.2410    7.9370   25.7510 C.ar  147  TYR147     -0.0009
     39  CE1       75.5510    7.4810   27.2480 C.ar  147  TYR147      0.0417
     40  CE2       73.4770    6.6590   26.2730 C.ar  147  TYR147      0.0417
     41  CZ        74.6420    6.4320   27.0160 C.ar  147  TYR147      0.1957
     42  OH        74.9140    5.1840   27.5310 O.3   147  TYR147     -0.2866
     43  N         73.7350    9.9930   31.8240 N.3   149  ASN149     -0.1240
     44  CA        73.4820    9.0840   32.9180 C.3   149  ASN149      0.1653
     45  C         72.5740    9.7460   33.9480 C.2   149  ASN149      0.2266
     46  O         71.8010    9.0560   34.6320 O.2   149  ASN149     -0.2867
     47  CB        74.7810    8.7350   33.6530 C.3   149  ASN149      0.1155
     48  CG        75.6920    7.8490   32.8510 C.2   149  ASN149      0.2627
     49  OD1       75.2580    7.0940   31.9800 O.2   149  ASN149     -0.2716
     50  ND2       76.9790    7.9180   33.1520 N.am  149  ASN149     -0.0877
     51  N         92.8930   -0.7270   32.2820 N.3   201  ARG201     -0.1245
     52  CA        93.0330    0.6390   31.8000 C.3   201  ARG201      0.1563
     53  C         94.5020    1.0270   32.0150 C.2   201  ARG201      0.2260
     54  O         95.0130    0.9400   33.1340 O.2   201  ARG201     -0.2867
     55  CB        92.1070    1.5850   32.5690 C.3   201  ARG201      0.0307
     56  CG        92.2300    3.0280   32.1050 C.3   201  ARG201      0.0489
     57  CD        91.3270    3.9480   32.8890 C.3   201  ARG201      0.2205
     58  NE        91.5230    5.3400   32.5000 N.pl3 201  ARG201     -0.0865
     59  CZ        90.6370    6.3060   32.7250 C.cat 201  ARG201      0.5346
     60  NH1       89.4870    6.0240   33.3350 N.pl3 201  ARG201      0.1354
     61  NH2       90.8970    7.5530   32.3480 N.pl3 201  ARG201      0.1354
     62  N         84.7970   -0.9490   38.2060 N.3   208  VAL208     -0.1231
     63  CA        84.0960    0.3120   38.2630 C.3   208  VAL208      0.1692
     64  C         83.9240    0.7560   39.7150 C.2   208  VAL208      0.2592
     65  O         83.7050   -0.0720   40.6200 O.2   208  VAL208     -0.2718
     66  CB        82.7230    0.2010   37.5400 C.3   208  VAL208      0.0266
     67  CG1       81.8200   -0.8050   38.2390 C.3   208  VAL208      0.0020
     68  CG2       82.0800    1.5590   37.4610 C.3   208  VAL208      0.0020
     69  N         84.0340    2.0560   39.9460 N.am  209  SER209     -0.1952
     70  CA        83.8780    2.5610   41.3080 C.3   209  SER209      0.1924
     71  C         82.4490    3.0210   41.5870 C.2   209  SER209      0.2314
     72  O         81.6970    3.3720   40.6690 O.2   209  SER209     -0.2863
     73  CB        84.8460    3.7150   41.5470 C.3   209  SER209      0.2116
     74  OG        84.5750    4.7860   40.6570 O.3   209  SER209     -0.2180
     75  N         74.7980    2.4620   34.7530 N.3   218  TYR218     -0.1241
     76  CA        75.9390    1.7280   34.1980 C.3   218  TYR218      0.1605
     77  C         76.4270    0.6280   35.0890 C.2   218  TYR218      0.2264
     78  O         77.5540    0.1470   34.9060 O.2   218  TYR218     -0.2867
     79  CB        77.0950    2.7040   33.9400 C.3   218  TYR218      0.0534
     80  CG        77.5120    3.5500   35.1410 C.ar  218  TYR218     -0.0201
     81  CD1       78.4130    3.0490   36.1020 C.ar  218  TYR218     -0.0009
     82  CD2       77.0360    4.8480   35.3020 C.ar  218  TYR218     -0.0009
     83  CE1       78.8190    3.8390   37.1780 C.ar  218  TYR218      0.0417
     84  CE2       77.4380    5.6460   36.3630 C.ar  218  TYR218      0.0417
     85  CZ        78.3300    5.1330   37.2980 C.ar  218  TYR218      0.1957
     86  OH        78.7190    5.9590   38.3450 O.3   218  TYR218     -0.2866
     87  N         81.9780    8.7330   20.0510 N.3   286  ASN286     -0.1240
     88  CA        81.4830    9.6600   21.0600 C.3   286  ASN286      0.1653
     89  C         81.3610   11.1270   20.6220 C.2   286  ASN286      0.2266
     90  O         80.5210   11.8580   21.1560 O.2   286  ASN286     -0.2867
     91  CB        82.2960    9.4900   22.3480 C.3   286  ASN286      0.1155
     92  CG        81.9560    8.1740   23.0490 C.2   286  ASN286      0.2627
     93  OD1       80.8130    7.6850   22.9500 O.2   286  ASN286     -0.2716
     94  ND2       82.9120    7.6050   23.7590 N.am  286  ASN286     -0.0877
     95  N         77.6300   11.5410   21.8980 N.3   290  LEU290     -0.1245
     96  CA        77.4190   12.3230   23.1150 C.3   290  LEU290      0.1561
     97  C         77.0000   13.7550   22.8270 C.2   290  LEU290      0.2260
     98  O         76.7810   14.5420   23.7600 O.2   290  LEU290     -0.2867
     99  CB        78.7110   12.3370   23.9550 C.3   290  LEU290      0.0270
    100  CG        79.2500   10.9630   24.3200 C.3   290  LEU290      0.0019
    101  CD1       80.4930   11.1470   25.2380 C.3   290  LEU290      0.0001
    102  CD2       78.1640   10.1240   24.9930 C.3   290  LEU290      0.0001
    103  N         75.7160    0.4970   22.9970 N.3   313  THR313     -0.1203
    104  CA        77.1540    0.4530   23.3520 C.3   313  THR313      0.1994
    105  C         77.2370    0.7300   24.8770 C.2   313  THR313      0.2618
    106  O         76.3370    1.3160   25.4840 O.2   313  THR313     -0.2717
    107  CB        77.9740    1.5890   22.6300 C.3   313  THR313      0.1784
    108  OG1       77.4030    2.8680   22.9360 O.3   313  THR313     -0.2211
    109  CG2       77.9900    1.3810   21.1200 C.3   313  THR313      0.0376
    110  N         78.3090    0.2590   25.5090 N.am  314  GLY314     -0.1942
    111  CA        78.4790    0.5610   26.9290 C.3   314  GLY314      0.2014
    112  C         79.9730    0.5140   27.2660 C.2   314  GLY314      0.2639
    113  O         80.7070   -0.2430   26.6540 O.2   314  GLY314     -0.2714
    114  N         80.4240    1.3630   28.1990 N.am  315  ALA315     -0.1963
    115  CA        81.8370    1.3360   28.6290 C.3   315  ALA315      0.1728
    116  C         81.9810    1.6610   30.1120 C.2   315  ALA315      0.2617
    117  O         81.1130    2.2830   30.7000 O.2   315  ALA315     -0.2715
    118  CB        82.6550    2.3350   27.8430 C.3   315  ALA315      0.0334
    119  N         83.0520    1.1530   30.7210 N.am  316  THR316     -0.1937
    120  CA        83.4100    1.5690   32.0960 C.3   316  THR316      0.2028
    121  C         84.9000    1.8100   31.9120 C.2   316  THR316      0.2642
    122  O         85.4130    1.6690   30.8030 O.2   316  THR316     -0.2714
    123  CB        83.1850    0.4990   33.1870 C.3   316  THR316      0.1808
    124  OG1       83.8860   -0.6950   32.8350 O.3   316  THR316     -0.2208
    125  CG2       81.6860    0.1980   33.3400 C.3   316  THR316      0.0379
    126  N         85.5990    2.2080   32.9780 N.am  317  GLY317     -0.1954
    127  CA        87.0190    2.4820   32.8450 C.3   317  GLY317      0.1869
    128  C         87.7930    1.3460   32.2210 C.2   317  GLY317      0.2309
    129  O         88.6460    1.5760   31.3610 O.2   317  GLY317     -0.2863
    130  N         88.3910   -0.9820   27.4630 N.3   340  ASN340     -0.1240
    131  CA        87.5130   -0.0270   26.8080 C.3   340  ASN340      0.1653
    132  C         88.2010    0.4080   25.5290 C.2   340  ASN340      0.2266
    133  O         89.2010    1.1300   25.5630 O.2   340  ASN340     -0.2867
    134  CB        87.2460    1.1710   27.7280 C.3   340  ASN340      0.1155
    135  CG        86.3760    2.2280   27.0880 C.2   340  ASN340      0.2627
    136  OD1       85.9320    2.0870   25.9450 O.2   340  ASN340     -0.2716
    137  ND2       86.1280    3.3020   27.8240 N.am  340  ASN340     -0.0877
    138  N         84.2230    2.7450   20.2410 N.3   343  ASN343     -0.1240
    139  CA        82.9220    2.2580   19.7880 C.3   343  ASN343      0.1653
    140  C         82.8730    1.9130   18.3000 C.2   343  ASN343      0.2266
    141  O         82.3140    0.8630   17.9360 O.2   343  ASN343     -0.2867
    142  CB        81.8030    3.2850   20.0500 C.3   343  ASN343      0.1155
    143  CG        81.4650    3.4130   21.5150 C.2   343  ASN343      0.2627
    144  OD1       81.5510    2.4380   22.2660 O.2   343  ASN343     -0.2716
    145  ND2       81.0550    4.6180   21.9280 N.am  343  ASN343     -0.0877
@<TRIPOS>BOND
     1   141   140    2
     2   140   139    1
     3   139   142    1
     4   139   138    1
     5   142   143    1
     6    87    88    1
     7    89    88    1
     8    89    90    2
     9    88    91    1
    10   109   107    1
    11   143   145   am
    12   143   144    2
    13    95    96    1
    14    91    92    1
    15   107   108    1
    16   107   104    1
    17    97    96    1
    18    97    98    2
    19    93    92    2
    20   103   104    1
    21    92    94   am
    22    96    99    1
    23   104   105    1
    24    99   100    1
    25   100   102    1
    26   100   101    1
    27   105   106    2
    28   105   110   am
    29    35    36    1
    30    35    32    1
    31    31    32    1
    32   110   111    1
    33   132   133    2
    34   132   131    1
    35    38    36   ar
    36    38    40   ar
    37   136   135    2
    38    36    37   ar
    39    32    33    1
    40    40    41   ar
    41   113   112    2
    42    37    39   ar
    43   131   130    1
    44   131   134    1
    45   111   112    1
    46    41    39   ar
    47    41    42    1
    48   135   134    1
    49   135   137   am
    50   112   114   am
    51    33    34    2
    52   118   115    1
    53   114   115    1
    54   115   116    1
    55     4     3    2
    56     3     2    1
    57    21    19    1
    58    20    19    1
    59    11    12    1
    60    11    10    1
    61     2     1    1
    62     9    10    1
    63     9     6    1
    64     7     8    2
    65     7     6    1
    66    19    18    1
    67    18    15    1
    68    12    13    1
    69   116   117    2
    70   116   119   am
    71     6     5    1
    72   119   120    1
    73   122   121    2
    74    15    14    1
    75    15    16    1
    76   129   128    2
    77    52    53    1
    78    52    51    1
    79    52    55    1
    80    43    44    1
    81   121   120    1
    82   121   126   am
    83    49    48    2
    84    53    54    2
    85   120   123    1
    86    56    55    1
    87    56    57    1
    88    16    17    2
    89    16    22   am
    90   128   127    1
    91    61    59    1
    92    58    59    2
    93    58    57    1
    94    30    28   am
    95    59    60    1
    96   124   123    1
    97   127   126    1
    98    48    50   am
    99    48    47    1
   100    44    47    1
   101    44    45    1
   102    22    23    1
   103   123   125    1
   104    28    27    1
   105    28    29    2
   106    27    26    1
   107    79    76    1
   108    79    80    1
   109    45    46    2
   110    76    75    1
   111    76    77    1
   112    23    26    1
   113    23    24    1
   114    78    77    2
   115    80    82   ar
   116    80    81   ar
   117    82    84   ar
   118    25    24    2
   119    81    83   ar
   120    84    85   ar
   121    83    85   ar
   122    85    86    1
   123    68    66    1
   124    66    67    1
   125    66    63    1
   126    62    63    1
   127    63    64    1
   128    64    69   am
   129    64    65    2
   130    69    70    1
   131    74    73    1
   132    72    71    2
   133    70    73    1
   134    70    71    1
