@<TRIPOS>MOLECULE
tmp/1kvlA00.pdb
 121 118 0 0 0
SMALL
GASTEIGER

@<TRIPOS>ATOM
      1  N         48.0310    8.7570    2.8080 N.3    89  TYR89      -0.1227
      2  CA        47.0960    7.7720    2.2740 C.3    89  TYR89       0.1736
      3  C         46.0260    8.2710    1.3150 C.2    89  TYR89       0.2595
      4  O         45.2460    7.4680    0.8060 O.2    89  TYR89      -0.2718
      5  CB        46.4440    7.0460    3.4530 C.3    89  TYR89       0.0548
      6  CG        47.5060    6.4070    4.2950 C.ar   89  TYR89      -0.0200
      7  CD1       48.1360    5.2380    3.8640 C.ar   89  TYR89      -0.0009
      8  CD2       47.9570    7.0180    5.4640 C.ar   89  TYR89      -0.0009
      9  CE1       49.2010    4.6850    4.5780 C.ar   89  TYR89       0.0417
     10  CE2       49.0130    6.4820    6.1830 C.ar   89  TYR89       0.0417
     11  CZ        49.6290    5.3190    5.7370 C.ar   89  TYR89       0.1957
     12  OH        50.6810    4.7880    6.4510 O.3    89  TYR89      -0.2866
     13  N         45.9450    9.5880    1.1380 N.am   90  TRP90      -0.1963
     14  CA        45.0060   10.2070    0.1870 C.3    90  TRP90       0.1756
     15  C         45.6860   11.5130   -0.2070 C.2    90  TRP90       0.2461
     16  O         45.3720   12.5820    0.3130 O.2    90  TRP90      -0.2730
     17  CB        43.6650   10.5220    0.8270 C.3    90  TRP90       0.0590
     18  CG        42.5650   10.5140   -0.1710 C.ar   90  TRP90       0.0006
     19  CD1       42.6960   10.4240   -1.5220 C.ar   90  TRP90       0.0946
     20  CD2       41.1600   10.4680    0.1060 C.ar   90  TRP90       0.0152
     21  NE1       41.4580   10.3090   -2.1200 N.ar   90  TRP90      -0.2442
     22  CE2       40.4970   10.3270   -1.1420 C.ar   90  TRP90       0.0810
     23  CE3       40.3950   10.5250    1.2860 C.ar   90  TRP90       0.0012
     24  CZ2       39.1090   10.2320   -1.2500 C.ar   90  TRP90       0.0191
     25  CZ3       39.0030   10.4380    1.1800 C.ar   90  TRP90       0.0001
     26  CH2       38.3740   10.2890   -0.0900 C.ar   90  TRP90       0.0015
     27  N         46.6390   11.4220   -1.1410 N.am   91  PRO91      -0.2716
     28  CA        47.4110   12.5730   -1.6340 C.3    91  PRO91       0.1536
     29  C         46.5570   13.6600   -2.2640 C.2    91  PRO91       0.2598
     30  O         46.9910   14.8020   -2.3290 O.2    91  PRO91      -0.2715
     31  CB        48.3790   11.9390   -2.6310 C.3    91  PRO91       0.0310
     32  CG        48.5720   10.5920   -2.1280 C.3    91  PRO91       0.0237
     33  CD        47.1690   10.1620   -1.6930 C.3    91  PRO91       0.0939
     34  N         45.3610   13.2780   -2.7140 N.am   92  GLU92      -0.1978
     35  CA        44.4070   14.1730   -3.3380 C.3    92  GLU92       0.1602
     36  C         43.7730   15.1380   -2.3530 C.2    92  GLU92       0.2287
     37  O         43.1120   16.1060   -2.7780 O.2    92  GLU92      -0.2864
     38  CB        43.3200   13.3580   -4.0440 C.3    92  GLU92       0.0415
     39  CG        43.7720   12.7110   -5.3680 C.3    92  GLU92       0.1163
     40  CD        44.5490   11.4020   -5.2000 C.2    92  GLU92       0.3649
     41  OE1       45.1000   10.9120   -6.2140 O.co2  92  GLU92      -0.2457
     42  OE2       44.6130   10.8450   -4.0810 O.co2  92  GLU92      -0.2457
     43  N         26.7020   12.0050   -0.5250 N.3   122  VAL122     -0.1231
     44  CA        27.9540   11.3750   -0.8920 C.3   122  VAL122      0.1692
     45  C         27.6880    9.9230   -1.2950 C.2   122  VAL122      0.2592
     46  O         27.3170    9.0930   -0.4610 O.2   122  VAL122     -0.2718
     47  CB        28.9540   11.4420    0.2920 C.3   122  VAL122      0.0266
     48  CG1       30.1650   10.5950   -0.0200 C.3   122  VAL122      0.0020
     49  CG2       29.3700   12.8910    0.5300 C.3   122  VAL122      0.0020
     50  N         27.8830    9.6350   -2.5790 N.am  123  LYS123     -0.1966
     51  CA        27.6140    8.3120   -3.1330 C.3   123  LYS123      0.1728
     52  C         28.7680    7.6830   -3.9030 C.2   123  LYS123      0.2617
     53  O         28.5890    6.7000   -4.6120 O.2   123  LYS123     -0.2715
     54  CB        26.3790    8.3850   -4.0370 C.3   123  LYS123      0.0311
     55  CG        25.1360    8.8790   -3.3050 C.3   123  LYS123      0.0038
     56  CD        23.9350    8.9890   -4.2410 C.3   123  LYS123      0.0206
     57  CE        22.7690    9.7050   -3.5540 C.3   123  LYS123      0.1093
     58  NZ        21.5690    9.8410   -4.4420 N.3   123  LYS123     -0.1314
     59  N         29.9570    8.2360   -3.7750 N.am  124  SER124     -0.1936
     60  CA        31.0960    7.6670   -4.4650 C.3   124  SER124      0.2055
     61  C         32.3310    8.1890   -3.7940 C.2   124  SER124      0.2643
     62  O         32.2520    9.1670   -3.0280 O.2   124  SER124     -0.2714
     63  CB        31.1110    8.1050   -5.9280 C.3   124  SER124      0.2130
     64  OG        31.2870    9.5260   -6.0380 O.3   124  SER124     -0.2179
     65  N         33.4700    7.5570   -4.0750 N.am  125  SER125     -0.1949
     66  CA        34.7090    8.0450   -3.4830 C.3   125  SER125      0.1924
     67  C         35.0670    9.4530   -3.9870 C.2   125  SER125      0.2314
     68  O         35.7040   10.2130   -3.2690 O.2   125  SER125     -0.2863
     69  CB        35.8640    7.0590   -3.7040 C.3   125  SER125      0.2116
     70  OG        36.2130    6.8880   -5.0460 O.3   125  SER125     -0.2180
     71  N         33.1920   11.6440   -1.8700 N.3   128  LEU128     -0.1245
     72  CA        33.7990   11.6710   -0.5320 C.3   128  LEU128      0.1561
     73  C         35.0070   12.6000   -0.4760 C.2   128  LEU128      0.2260
     74  O         35.1630   13.3560    0.5090 O.2   128  LEU128     -0.2867
     75  CB        34.1540   10.2460   -0.0980 C.3   128  LEU128      0.0270
     76  CG        34.5810   10.0530    1.3680 C.3   128  LEU128      0.0019
     77  CD1       33.3980   10.1610    2.3600 C.3   128  LEU128      0.0001
     78  CD2       35.2160    8.6450    1.4490 C.3   128  LEU128      0.0001
     79  N         36.9150    7.4800    8.0480 N.3   154  LEU154     -0.1245
     80  CA        38.0020    7.7440    7.1140 C.3   154  LEU154      0.1561
     81  C         39.2600    7.0210    7.6380 C.2   154  LEU154      0.2260
     82  O         40.0370    6.4860    6.8620 O.2   154  LEU154     -0.2867
     83  CB        38.2200    9.2600    6.9880 C.3   154  LEU154      0.0270
     84  CG        39.3750    9.7010    6.0790 C.3   154  LEU154      0.0019
     85  CD1       39.1760    9.0750    4.6840 C.3   154  LEU154      0.0001
     86  CD2       39.5050   11.2150    6.0090 C.3   154  LEU154      0.0001
     87  N         39.0340    3.4590    6.4160 N.3   157  ALA157     -0.1231
     88  CA        39.2700    3.3780    4.9900 C.3   157  ALA157      0.1694
     89  C         40.7380    3.5730    4.6330 C.2   157  ALA157      0.2591
     90  O         41.2430    2.8960    3.7230 O.2   157  ALA157     -0.2718
     91  CB        38.4280    4.4320    4.2790 C.3   157  ALA157      0.0304
     92  N         41.4250    4.5120    5.2900 N.am  158  LEU158     -0.1980
     93  CA        42.8380    4.7340    4.9600 C.3   158  LEU158      0.1596
     94  C         43.7410    3.6470    5.5190 C.2   158  LEU158      0.2287
     95  O         44.7090    3.2250    4.8810 O.2   158  LEU158     -0.2864
     96  CB        43.2980    6.0990    5.5030 C.3   158  LEU158      0.0297
     97  CG        42.4570    7.2730    4.9410 C.3   158  LEU158      0.0022
     98  CD1       43.0180    8.6050    5.4430 C.3   158  LEU158      0.0001
     99  CD2       42.4270    7.2280    3.3990 C.3   158  LEU158      0.0001
    100  N         44.4950    0.6580    3.2290 N.3   161  LYS161     -0.1245
    101  CA        44.8650    0.6430    1.8160 C.3   161  LYS161      0.1561
    102  C         46.2310   -0.1690    1.5790 C.2   161  LYS161      0.2260
    103  O         46.5850   -0.4290    0.4540 O.2   161  LYS161     -0.2867
    104  CB        45.2030    2.0640    1.2330 C.3   161  LYS161      0.0271
    105  CG        43.9860    2.9590    1.1670 C.3   161  LYS161      0.0035
    106  CD        44.2370    4.3020    0.5280 C.3   161  LYS161      0.0206
    107  CE        42.9110    5.0500    0.3740 C.3   161  LYS161      0.1093
    108  NZ        43.0640    6.3270   -0.3330 N.3   161  LYS161     -0.1314
    109  N         27.8390    6.0310    2.9230 N.3   212  ALA212     -0.1231
    110  CA        29.2710    6.1620    2.7490 C.3   212  ALA212      0.1694
    111  C         29.9640    5.8800    4.0950 C.2   212  ALA212      0.2591
    112  O         29.5460    6.4050    5.1200 O.2   212  ALA212     -0.2718
    113  CB        29.6120    7.5990    2.2680 C.3   212  ALA212      0.0304
    114  N         31.0130    5.0690    4.0420 N.am  213  LEU213     -0.1980
    115  CA        31.7710    4.6830    5.2240 C.3   213  LEU213      0.1596
    116  C         30.9180    3.9880    6.2870 C.2   213  LEU213      0.2287
    117  O         31.2660    3.9830    7.4860 O.2   213  LEU213     -0.2864
    118  CB        32.5070    5.9010    5.8030 C.3   213  LEU213      0.0297
    119  CG        33.4730    6.5870    4.8170 C.3   213  LEU213      0.0022
    120  CD1       34.1190    7.8010    5.5440 C.3   213  LEU213      0.0001
    121  CD2       34.5380    5.6000    4.3000 C.3   213  LEU213      0.0001
@<TRIPOS>BOND
     1    41    40   ar
     2    64    63    1
     3    63    60    1
     4    39    40    1
     5    39    38    1
     6    40    42   ar
     7    70    69    1
     8    53    52    2
     9    60    61    1
    10    60    59    1
    11    58    57    1
    12    56    57    1
    13    56    55    1
    14    65    61   am
    15    65    66    1
    16    38    35    1
    17    54    55    1
    18    54    51    1
    19    67    66    1
    20    67    68    2
    21    52    59   am
    22    52    51    1
    23    61    62    2
    24    69    66    1
    25    35    34    1
    26    35    36    1
    27    51    50    1
    28    37    36    2
    29    34    29   am
    30    31    32    1
    31    31    28    1
    32    50    45   am
    33    30    29    2
    34    29    28    1
    35    32    33    1
    36    21    19   ar
    37    21    22   ar
    38    71    72    1
    39    33    27    1
    40    28    27    1
    41    19    18   ar
    42    45    44    1
    43    45    46    2
    44    24    22   ar
    45    24    26   ar
    46    22    20   ar
    47    27    15   am
    48    44    43    1
    49    44    47    1
    50    72    73    1
    51    72    75    1
    52    73    74    2
    53   108   107    1
    54    15    14    1
    55    15    16    2
    56    18    20   ar
    57    18    17    1
    58    75    76    1
    59    26    25   ar
    60    48    47    1
    61    20    23   ar
    62    14    17    1
    63    14    13    1
    64    47    49    1
    65   107   106    1
    66   103   102    2
    67   106   105    1
    68     4     3    2
    69    13     3   am
    70   105   104    1
    71    25    23   ar
    72   104   101    1
    73     3     2    1
    74    76    78    1
    75    76    77    1
    76   102   101    1
    77   101   100    1
    78   113   110    1
    79     2     1    1
    80     2     5    1
    81   110   109    1
    82   110   111    1
    83    99    97    1
    84     5     6    1
    85    90    89    2
    86     7     6   ar
    87     7     9   ar
    88   114   111   am
    89   114   115    1
    90   111   112    2
    91    91    88    1
    92     6     8   ar
    93   121   119    1
    94     9    11   ar
    95    89    88    1
    96    89    92   am
    97    85    84    1
    98   119   120    1
    99   119   118    1
   100    95    94    2
   101    97    98    1
   102    97    96    1
   103    93    92    1
   104    93    96    1
   105    93    94    1
   106    88    87    1
   107   115   118    1
   108   115   116    1
   109     8    10   ar
   110    11    10   ar
   111    11    12    1
   112    86    84    1
   113    84    83    1
   114   116   117    2
   115    82    81    2
   116    83    80    1
   117    80    81    1
   118    80    79    1
