@<TRIPOS>MOLECULE
tmp/1kvlA01.pdb
 169 160 0 0 0
SMALL
GASTEIGER

@<TRIPOS>ATOM
      1  N         27.4380    1.9990   16.4010 N.3    61  GLY61      -0.1225
      2  CA        28.7780    2.4570   16.7880 C.3    61  GLY61       0.1811
      3  C         29.6540    1.4530   17.5120 C.2    61  GLY61       0.2280
      4  O         30.8790    1.6900   17.6010 O.2    61  GLY61      -0.2866
      5  N         32.7400    0.4540   15.7340 N.3    64  LYS64      -0.1245
      6  CA        33.9780    1.2240   15.7850 C.3    64  LYS64       0.1561
      7  C         35.0410    0.5200   16.5980 C.2    64  LYS64       0.2260
      8  O         36.1910    0.7820   16.3630 O.2    64  LYS64      -0.2867
      9  CB        33.7560    2.6280   16.3070 C.3    64  LYS64       0.0271
     10  CG        32.8520    3.4960   15.3920 C.3    64  LYS64       0.0035
     11  CD        32.5100    4.7490   16.1650 C.3    64  LYS64       0.0206
     12  CE        31.7960    5.7670   15.2940 C.3    64  LYS64       0.1093
     13  NZ        30.3590    5.3850   15.1160 N.3    64  LYS64      -0.1314
     14  N         29.4930   14.5230   12.5310 N.3   116  LEU116     -0.1231
     15  CA        29.0060   13.2400   12.9660 C.3   116  LEU116      0.1693
     16  C         28.6790   12.3490   11.7940 C.2   116  LEU116      0.2591
     17  O         29.0120   11.1890   11.7960 O.2   116  LEU116     -0.2718
     18  CB        27.7620   13.3930   13.8510 C.3   116  LEU116      0.0284
     19  CG        27.0350   12.0830   14.2130 C.3   116  LEU116      0.0019
     20  CD1       27.9690   11.1470   15.0200 C.3   116  LEU116      0.0001
     21  CD2       25.7740   12.3860   15.0150 C.3   116  LEU116      0.0001
     22  N         28.0200   12.8960   10.7850 N.am  117  GLN117     -0.1979
     23  CA        27.6360   12.0870    9.6480 C.3   117  GLN117      0.1601
     24  C         28.2300   12.5430    8.3400 C.2   117  GLN117      0.2287
     25  O         28.4640   13.7430    8.1110 O.2   117  GLN117     -0.2864
     26  CB        26.1090   12.1190    9.4710 C.3   117  GLN117      0.0394
     27  CG        25.2820   11.6120   10.6290 C.3   117  GLN117      0.0908
     28  CD        25.4430   10.1140   10.9030 C.2   117  GLN117      0.2608
     29  OE1       26.0170    9.3680   10.0960 O.2   117  GLN117     -0.2717
     30  NE2       24.9330    9.6690   12.0550 N.am  117  GLN117     -0.0878
     31  N         35.0850   15.5690   19.0300 N.3   146  LEU146     -0.1231
     32  CA        33.6850   15.6200   18.5800 C.3   146  LEU146      0.1693
     33  C         33.4050   14.2440   17.9190 C.2   146  LEU146      0.2592
     34  O         33.9070   13.9690   16.8230 O.2   146  LEU146     -0.2718
     35  CB        33.4360   16.7880   17.5900 C.3   146  LEU146      0.0284
     36  CG        31.9450   16.8260   17.1570 C.3   146  LEU146      0.0019
     37  CD1       31.0580   17.2360   18.3380 C.3   146  LEU146      0.0001
     38  CD2       31.7660   17.8210   16.0020 C.3   146  LEU146      0.0001
     39  N         32.6290   13.3880   18.5990 N.am  147  TYR147     -0.1976
     40  CA        32.3220   12.0330   18.0890 C.3   147  TYR147      0.1639
     41  C         31.8320   12.1430   16.6670 C.2   147  TYR147      0.2290
     42  O         30.9070   12.9260   16.4020 O.2   147  TYR147     -0.2864
     43  CB        31.2620   11.3650   18.9680 C.3   147  TYR147      0.0560
     44  CG        30.9850    9.9290   18.6350 C.ar  147  TYR147     -0.0198
     45  CD1       29.8300    9.5810   17.9530 C.ar  147  TYR147     -0.0009
     46  CD2       31.8460    8.9080   19.0530 C.ar  147  TYR147     -0.0009
     47  CE1       29.5130    8.2840   17.6990 C.ar  147  TYR147      0.0417
     48  CE2       31.5390    7.5360   18.7970 C.ar  147  TYR147      0.0417
     49  CZ        30.3570    7.2600   18.1270 C.ar  147  TYR147      0.1957
     50  OH        29.9370    5.9780   17.9240 O.3   147  TYR147     -0.2866
     51  N         31.2750    9.8390   12.7370 N.3   149  ASN149     -0.1240
     52  CA        31.4420    8.7440   11.8230 C.3   149  ASN149      0.1653
     53  C         32.3810    9.1110   10.6710 C.2   149  ASN149      0.2266
     54  O         33.1110    8.2690   10.1700 O.2   149  ASN149     -0.2867
     55  CB        30.1090    8.3380   11.2130 C.3   149  ASN149      0.1155
     56  CG        29.1740    7.7670   12.2090 C.2   149  ASN149      0.2627
     57  OD1       29.5890    7.1610   13.1910 O.2   149  ASN149     -0.2716
     58  ND2       27.8820    7.9240   11.9700 N.am  149  ASN149     -0.0877
     59  N         19.2010   -0.9100    8.9580 N.3   208  VAL208     -0.1231
     60  CA        20.0510    0.2430    8.6370 C.3   208  VAL208      0.1692
     61  C         20.2010    0.4190    7.1040 C.2   208  VAL208      0.2592
     62  O         20.2800   -0.5510    6.3710 O.2   208  VAL208     -0.2718
     63  CB        21.4170    0.0710    9.3390 C.3   208  VAL208      0.0266
     64  CG1       22.0900   -1.1560    8.8340 C.3   208  VAL208      0.0020
     65  CG2       22.2760    1.3090    9.1580 C.3   208  VAL208      0.0020
     66  N         20.1880    1.6680    6.6380 N.am  209  SER209     -0.1952
     67  CA        20.3310    1.9550    5.2050 C.3   209  SER209      0.1924
     68  C         21.8020    2.0620    4.7890 C.2   209  SER209      0.2314
     69  O         22.6380    2.4370    5.5990 O.2   209  SER209     -0.2863
     70  CB        19.6890    3.3090    4.8650 C.3   209  SER209      0.2116
     71  OG        18.3310    3.4120    5.2640 O.3   209  SER209     -0.2180
     72  N         29.5560    2.0960   11.4530 N.3   218  TYR218     -0.1241
     73  CA        28.3580    1.6610   12.1490 C.3   218  TYR218      0.1605
     74  C         27.6560    0.4600   11.4870 C.2   218  TYR218      0.2264
     75  O         26.5110    0.1570   11.8470 O.2   218  TYR218     -0.2867
     76  CB        27.3440    2.8340   12.2410 C.3   218  TYR218      0.0534
     77  CG        26.9230    3.4280   10.8850 C.ar  218  TYR218     -0.0201
     78  CD1       25.9670    2.7750   10.0700 C.ar  218  TYR218     -0.0009
     79  CD2       27.4890    4.6060   10.4180 C.ar  218  TYR218     -0.0009
     80  CE1       25.6080    3.3010    8.8280 C.ar  218  TYR218      0.0417
     81  CE2       27.1320    5.1500    9.1780 C.ar  218  TYR218      0.0417
     82  CZ        26.1870    4.4910    8.3900 C.ar  218  TYR218      0.1957
     83  OH        25.8150    5.1040    7.1980 O.3   218  TYR218     -0.2866
     84  N         25.3730    9.6780   26.7700 N.3   285  ASP285     -0.1225
     85  CA        24.0530   10.2620   26.5660 C.3   285  ASP285      0.1805
     86  C         23.9190   10.9850   25.2250 C.2   285  ASP285      0.2597
     87  O         24.4270   12.1010   25.0470 O.2   285  ASP285     -0.2718
     88  CB        23.7350   11.2270   27.7180 C.3   285  ASP285      0.1424
     89  CG        22.3070   11.7520   27.6690 C.2   285  ASP285      0.3668
     90  OD1       21.9460   12.4040   26.6680 O.co2 285  ASP285     -0.2456
     91  OD2       21.5450   11.5160   28.6310 O.co2 285  ASP285     -0.2456
     92  N         23.2230   10.3390   24.2900 N.am  286  ASN286     -0.1974
     93  CA        22.9880   10.8910   22.9540 C.3   286  ASN286      0.1688
     94  C         21.7810   11.8290   22.9400 C.2   286  ASN286      0.2292
     95  O         21.3080   12.2350   21.8680 O.2   286  ASN286     -0.2864
     96  CB        22.7680    9.7700   21.9350 C.3   286  ASN286      0.1181
     97  CG        21.4220    9.0490   22.0960 C.2   286  ASN286      0.2629
     98  OD1       20.7170    9.2300   23.0850 O.2   286  ASN286     -0.2716
     99  ND2       21.0840    8.1990   21.1290 N.am  286  ASN286     -0.0877
    100  N         22.0530   14.4420   23.6130 N.3   288  ILE288     -0.1231
    101  CA        22.7690   15.5880   23.0740 C.3   288  ILE288      0.1692
    102  C         23.2900   15.1870   21.6970 C.2   288  ILE288      0.2592
    103  O         24.0200   14.2000   21.5550 O.2   288  ILE288     -0.2718
    104  CB        23.9400   15.9860   23.9730 C.3   288  ILE288      0.0266
    105  CG1       23.4100   16.3160   25.3720 C.3   288  ILE288      0.0019
    106  CG2       24.6570   17.1950   23.3950 C.3   288  ILE288      0.0020
    107  CD1       24.4710   16.7680   26.3370 C.3   288  ILE288      0.0001
    108  N         22.8880   15.9480   20.6850 N.am  289  ALA289     -0.1966
    109  CA        23.2640   15.7040   19.2910 C.3   289  ALA289      0.1728
    110  C         24.7130   16.0940   18.9320 C.2   289  ALA289      0.2616
    111  O         25.2860   15.5810   17.9670 O.2   289  ALA289     -0.2715
    112  CB        22.2820   16.4590   18.3850 C.3   289  ALA289      0.0334
    113  N         25.2910   17.0320   19.6750 N.am  290  LEU290     -0.1963
    114  CA        26.6610   17.4670   19.4000 C.3   290  LEU290      0.1728
    115  C         27.2240   17.9170   20.7450 C.2   290  LEU290      0.2616
    116  O         26.6540   18.7870   21.4010 O.2   290  LEU290     -0.2715
    117  CB        26.6600   18.6270   18.3710 C.3   290  LEU290      0.0311
    118  CG        27.9510   19.2460   17.7850 C.3   290  LEU290      0.0022
    119  CD1       27.6100   20.1220   16.5700 C.3   290  LEU290      0.0001
    120  CD2       28.6780   20.0780   18.8560 C.3   290  LEU290      0.0001
    121  N         28.2980   17.2570   21.1770 N.am  291  ALA291     -0.1977
    122  CA        28.9630   17.5870   22.4290 C.3   291  ALA291      0.1597
    123  C         30.4600   17.7000   22.1750 C.2   291  ALA291      0.2287
    124  O         31.2290   16.7120   22.1860 O.2   291  ALA291     -0.2864
    125  CB        28.6560   16.5530   23.5040 C.3   291  ALA291      0.0319
    126  N         31.6550    0.7500   24.9900 N.3   312  LYS312     -0.1231
    127  CA        31.2180    1.4300   23.7900 C.3   312  LYS312      0.1693
    128  C         29.7320    1.2530   23.6110 C.2   312  LYS312      0.2593
    129  O         29.2320    0.1430   23.7800 O.2   312  LYS312     -0.2718
    130  CB        31.9100    0.8740   22.5510 C.3   312  LYS312      0.0285
    131  CG        31.5810    1.6900   21.2610 C.3   312  LYS312      0.0035
    132  CD        32.1780    3.1200   21.3500 C.3   312  LYS312      0.0206
    133  CE        31.8670    3.9260   20.0830 C.3   312  LYS312      0.1093
    134  NZ        30.5210    4.5380   20.1680 N.3   312  LYS312     -0.1314
    135  N         29.0440    2.3550   23.3260 N.am  313  THR313     -0.1939
    136  CA        27.5760    2.3150   23.0600 C.3   313  THR313      0.2028
    137  C         27.3840    2.3470   21.5430 C.2   313  THR313      0.2643
    138  O         28.2710    2.7710   20.8060 O.2   313  THR313     -0.2714
    139  CB        26.8300    3.5550   23.6220 C.3   313  THR313      0.1808
    140  OG1       27.4010    4.7380   23.0530 O.3   313  THR313     -0.2208
    141  CG2       26.8880    3.6050   25.1510 C.3   313  THR313      0.0379
    142  N         26.2220    1.8750   21.0710 N.am  314  GLY314     -0.1939
    143  CA        26.0000    1.9290   19.6380 C.3   314  GLY314      0.2014
    144  C         24.5160    2.0080   19.3410 C.2   314  GLY314      0.2639
    145  O         23.7170    1.5100   20.1180 O.2   314  GLY314     -0.2714
    146  N         24.1450    2.6590   18.2320 N.am  315  ALA315     -0.1963
    147  CA        22.7370    2.7120   17.8680 C.3   315  ALA315      0.1728
    148  C         22.5860    2.8280   16.3780 C.2   315  ALA315      0.2617
    149  O         23.4860    3.2910   15.6850 O.2   315  ALA315     -0.2715
    150  CB        22.0540    3.9340   18.5110 C.3   315  ALA315      0.0334
    151  N         21.4420    2.3510   15.8970 N.am  316  THR316     -0.1937
    152  CA        21.0550    2.5780   14.4920 C.3   316  THR316      0.2028
    153  C         19.6000    3.0090   14.6900 C.2   316  THR316      0.2642
    154  O         19.1120    3.1260   15.8230 O.2   316  THR316     -0.2714
    155  CB        21.1080    1.3380   13.5840 C.3   316  THR316      0.1808
    156  OG1       20.3090    0.2990   14.1370 O.3   316  THR316     -0.2208
    157  CG2       22.5250    0.8580   13.4380 C.3   316  THR316      0.0379
    158  N         18.8790    3.2270   13.5910 N.am  317  GLY317     -0.1954
    159  CA        17.5160    3.6730   13.7560 C.3   317  GLY317      0.1869
    160  C         16.6480    2.7380   14.5750 C.2   317  GLY317      0.2309
    161  O         15.8270    3.1750   15.3630 O.2   317  GLY317     -0.2863
    162  N         20.7730    5.8230   26.0930 N.3   343  ASN343     -0.1240
    163  CA        22.0910    5.3490   26.5200 C.3   343  ASN343      0.1653
    164  C         22.2510    5.2390   28.0370 C.2   343  ASN343      0.2266
    165  O         22.8130    4.2430   28.5380 O.2   343  ASN343     -0.2867
    166  CB        23.2120    6.2660   25.9900 C.3   343  ASN343      0.1155
    167  CG        23.6270    5.9200   24.5510 C.2   343  ASN343      0.2627
    168  OD1       23.4080    4.7930   24.0880 O.2   343  ASN343     -0.2716
    169  ND2       24.2460    6.8830   23.8490 N.am  343  ASN343     -0.0877
@<TRIPOS>BOND
     1    68    67    1
     2    68    69    2
     3    70    67    1
     4    70    71    1
     5    67    66    1
     6    62    61    2
     7    66    61   am
     8    61    60    1
     9    83    82    1
    10    25    24    2
    11    24    23    1
    12    82    80   ar
    13    82    81   ar
    14    60    59    1
    15    60    63    1
    16    80    78   ar
    17    64    63    1
    18    65    63    1
    19    81    79   ar
    20    26    23    1
    21    26    27    1
    22    23    22    1
    23    78    77   ar
    24    29    28    2
    25    54    53    2
    26    79    77   ar
    27    27    28    1
    28    53    52    1
    29    22    16   am
    30    77    76    1
    31    28    30   am
    32    55    52    1
    33    55    56    1
    34    72    73    1
    35    74    75    2
    36    74    73    1
    37    16    17    2
    38    16    15    1
    39    52    51    1
    40    58    56   am
    41    73    76    1
    42    56    57    2
    43    14    15    1
    44    15    18    1
    45   157   155    1
    46   155   156    1
    47   155   152    1
    48   158   159    1
    49   158   153   am
    50   159   160    1
    51    18    19    1
    52    19    21    1
    53    19    20    1
    54   152   153    1
    55   152   151    1
    56   160   161    2
    57   153   154    2
    58    13    12    1
    59    12    11    1
    60    10    11    1
    61    10     9    1
    62   149   148    2
    63     5     6    1
    64     6     9    1
    65     6     7    1
    66   151   148   am
    67    38    36    1
    68     8     7    2
    69   148   147    1
    70     1     2    1
    71    42    41    2
    72   119   118    1
    73    41    40    1
    74     2     3    1
    75    34    33    2
    76    36    35    1
    77    36    37    1
    78     3     4    2
    79    35    32    1
    80    47    45   ar
    81    47    49   ar
    82   118   117    1
    83   118   120    1
    84   147   146    1
    85   147   150    1
    86    33    32    1
    87    33    39   am
    88    50    49    1
    89    45    44   ar
    90   111   110    2
    91    40    39    1
    92    40    43    1
    93    49    48   ar
    94   146   144   am
    95   117   114    1
    96   112   109    1
    97    32    31    1
    98    44    43    1
    99    44    46   ar
   100    48    46   ar
   101   110   109    1
   102   110   113   am
   103   109   108    1
   104   144   143    1
   105   144   145    2
   106   114   113    1
   107   114   115    1
   108   143   142    1
   109   133   134    1
   110   133   132    1
   111   108   102   am
   112   115   121   am
   113   115   116    2
   114   138   137    2
   115   142   137   am
   116    99    97   am
   117   121   122    1
   118   131   132    1
   119   131   130    1
   120   137   136    1
   121   103   102    2
   122   102   101    1
   123    95    94    2
   124    96    97    1
   125    96    93    1
   126    97    98    2
   127   123   124    2
   128   123   122    1
   129   122   125    1
   130   130   127    1
   131    94    93    1
   132    93    92    1
   133   140   139    1
   134   136   135    1
   135   136   139    1
   136   101   100    1
   137   101   104    1
   138   135   128   am
   139   106   104    1
   140   128   129    2
   141   128   127    1
   142   139   141    1
   143   127   126    1
   144   169   167   am
   145   104   105    1
   146   168   167    2
   147    92    86   am
   148   167   166    1
   149    87    86    2
   150    86    85    1
   151   105   107    1
   152   166   163    1
   153   162   163    1
   154   163   164    1
   155    85    84    1
   156    85    88    1
   157    90    89   ar
   158    89    88    1
   159    89    91   ar
   160   164   165    2
