@<TRIPOS>MOLECULE
tmp/1kw0A01.pdb
 142 140 0 0 0
SMALL
GASTEIGER

@<TRIPOS>ATOM
      1  N         -8.2050   20.2470   -1.4130 N.3    21  TYR21      -0.1241
      2  CA        -7.9590   21.3420   -2.3590 C.3    21  TYR21       0.1605
      3  C         -8.5040   20.9900   -3.7420 C.2    21  TYR21       0.2264
      4  O         -8.1850   21.6470   -4.7320 O.2    21  TYR21      -0.2867
      5  CB        -6.4530   21.6610   -2.4570 C.3    21  TYR21       0.0534
      6  CG        -5.9020   22.4760   -1.2870 C.ar   21  TYR21      -0.0201
      7  CD1       -4.7590   22.0570   -0.5950 C.ar   21  TYR21      -0.0009
      8  CD2       -6.5430   23.6480   -0.8520 C.ar   21  TYR21      -0.0009
      9  CE1       -4.2720   22.7750    0.5020 C.ar   21  TYR21       0.0417
     10  CE2       -6.0630   24.3770    0.2470 C.ar   21  TYR21       0.0417
     11  CZ        -4.9320   23.9290    0.9210 C.ar   21  TYR21       0.1957
     12  OH        -4.4890   24.5930    2.0390 O.3    21  TYR21      -0.2866
     13  N         -6.6420   18.0810    5.5400 N.3   131  LEU131     -0.1245
     14  CA        -6.8200   19.5320    5.5170 C.3   131  LEU131      0.1561
     15  C         -7.9680   20.0300    6.3950 C.2   131  LEU131      0.2260
     16  O         -9.0540   19.4560    6.3880 O.2   131  LEU131     -0.2867
     17  CB        -7.0540   19.9870    4.0710 C.3   131  LEU131      0.0270
     18  CG        -7.1760   21.4870    3.7960 C.3   131  LEU131      0.0019
     19  CD1       -5.9080   22.2020    4.2350 C.3   131  LEU131      0.0001
     20  CD2       -7.4240   21.7070    2.3160 C.3   131  LEU131      0.0001
     21  N          3.3000   12.5390    1.5710 N.3   153  ARG153     -0.1245
     22  CA         2.9430   12.7050    0.1670 C.3   153  ARG153      0.1563
     23  C          3.3090   11.4790   -0.6760 C.2   153  ARG153      0.2260
     24  O          4.1790   10.6900   -0.3020 O.2   153  ARG153     -0.2867
     25  CB         3.6470   13.9400   -0.3930 C.3   153  ARG153      0.0307
     26  CG         5.1680   13.8100   -0.4240 C.3   153  ARG153      0.0489
     27  CD         5.8400   15.1580   -0.7050 C.3   153  ARG153      0.2205
     28  NE         5.5190   16.1340    0.3230 N.pl3 153  ARG153     -0.0865
     29  CZ         5.7360   17.4440    0.2250 C.cat 153  ARG153      0.5346
     30  NH1        6.2880   17.9490   -0.8710 N.pl3 153  ARG153      0.1354
     31  NH2        5.3880   18.2670    1.2150 N.pl3 153  ARG153      0.1354
     32  N          6.6070   18.3980   -4.8880 N.3   160  TYR160     -0.1227
     33  CA         5.4370   19.2100   -4.5770 C.3   160  TYR160      0.1736
     34  C          4.1620   18.3810   -4.4230 C.2   160  TYR160      0.2596
     35  O          3.9470   17.3940   -5.1400 O.2   160  TYR160     -0.2718
     36  CB         5.2030   20.2550   -5.6840 C.3   160  TYR160      0.0548
     37  CG         3.9110   21.0320   -5.5310 C.ar  160  TYR160     -0.0200
     38  CD1        3.8600   22.2140   -4.8010 C.ar  160  TYR160     -0.0009
     39  CD2        2.7220   20.5430   -6.0660 C.ar  160  TYR160     -0.0009
     40  CE1        2.6430   22.8810   -4.6050 C.ar  160  TYR160      0.0417
     41  CE2        1.5090   21.1950   -5.8770 C.ar  160  TYR160      0.0417
     42  CZ         1.4680   22.3620   -5.1430 C.ar  160  TYR160      0.1957
     43  OH         0.2500   22.9780   -4.9130 O.3   160  TYR160     -0.2866
     44  N          3.3260   18.7920   -3.4720 N.am  161  THR161     -0.1939
     45  CA         2.0330   18.1580   -3.2360 C.3   161  THR161      0.2013
     46  C          1.0590   19.2570   -2.8220 C.2   161  THR161      0.2484
     47  O          1.4100   20.1600   -2.0790 O.2   161  THR161     -0.2729
     48  CB         2.0930   17.0730   -2.1380 C.3   161  THR161      0.1807
     49  OG1        0.8050   16.4620   -2.0100 O.3   161  THR161     -0.2208
     50  CG2        2.5030   17.6640   -0.7990 C.3   161  THR161      0.0379
     51  N         -0.1710   19.2190   -3.3430 N.am  162  PRO162     -0.2715
     52  CA        -1.1560   20.2460   -2.9860 C.3   162  PRO162      0.1536
     53  C         -1.6970   20.0850   -1.5680 C.2   162  PRO162      0.2598
     54  O         -2.1900   21.0390   -0.9950 O.2   162  PRO162     -0.2715
     55  CB        -2.2370   20.0740   -4.0590 C.3   162  PRO162      0.0310
     56  CG        -2.1740   18.6150   -4.3750 C.3   162  PRO162      0.0237
     57  CD        -0.6830   18.3330   -4.4040 C.3   162  PRO162      0.0939
     58  N         -1.5920   18.8820   -1.0100 N.am  163  GLU163     -0.1964
     59  CA        -2.0800   18.5990    0.3350 C.3   163  GLU163      0.1718
     60  C         -1.0290   18.8980    1.3980 C.2   163  GLU163      0.2458
     61  O          0.1760   18.8690    1.1230 O.2   163  GLU163     -0.2730
     62  CB        -2.4750   17.1280    0.4500 C.3   163  GLU163      0.0428
     63  CG        -3.6450   16.7090   -0.4200 C.3   163  GLU163      0.1163
     64  CD        -4.9890   17.1820    0.1180 C.2   163  GLU163      0.3649
     65  OE1       -5.3140   16.8170    1.2820 O.co2 163  GLU163     -0.2457
     66  OE2       -5.7050   17.9000   -0.6340 O.co2 163  GLU163     -0.2457
     67  N         -1.4780   19.1940    2.6290 N.am  164  PRO164     -0.2727
     68  CA        -0.5480   19.4860    3.7230 C.3   164  PRO164      0.1402
     69  C         -0.0440   18.2110    4.4340 C.2   164  PRO164      0.2269
     70  O         -0.4120   17.9380    5.5840 O.2   164  PRO164     -0.2865
     71  CB        -1.3820   20.3530    4.6470 C.3   164  PRO164      0.0296
     72  CG        -2.7630   19.7570    4.4950 C.3   164  PRO164      0.0237
     73  CD        -2.8610   19.5600    2.9990 C.3   164  PRO164      0.0939
     74  N          5.2070   18.9010    4.9610 N.3   168  HIS168     -0.1241
     75  CA         4.8410   20.3030    5.0540 C.3   168  HIS168      0.1621
     76  C          4.7460   20.7720    6.5110 C.2   168  HIS168      0.2264
     77  O          5.3030   21.8130    6.8810 O.2   168  HIS168     -0.2867
     78  CB         3.5090   20.5280    4.3480 C.3   168  HIS168      0.0745
     79  CG         2.9900   21.9180    4.4890 C.ar  168  HIS168      0.0817
     80  ND1        3.7050   23.0200    4.0680 N.ar  168  HIS168     -0.2268
     81  CD2        1.8600   22.3940    5.0580 C.ar  168  HIS168      0.1154
     82  CE1        3.0370   24.1150    4.3760 C.ar  168  HIS168      0.1986
     83  NE2        1.9140   23.7640    4.9780 N.ar  168  HIS168     -0.2212
     84  N         -1.8160   33.1830    4.2150 N.3   209  TRP209     -0.1241
     85  CA        -1.3190   32.4900    3.0450 C.3   209  TRP209      0.1605
     86  C         -0.1340   33.2070    2.4050 C.2   209  TRP209      0.2264
     87  O          0.8910   32.5920    2.1200 O.2   209  TRP209     -0.2867
     88  CB        -2.4570   32.3340    2.0360 C.3   209  TRP209      0.0550
     89  CG        -2.1790   31.3770    0.9110 C.ar  209  TRP209      0.0003
     90  CD1       -1.6950   31.6810   -0.3340 C.ar  209  TRP209      0.0946
     91  CD2       -2.4080   29.9620    0.9170 C.ar  209  TRP209      0.0152
     92  NE1       -1.6270   30.5440   -1.1030 N.ar  209  TRP209     -0.2442
     93  CE2       -2.0720   29.4770   -0.3640 C.ar  209  TRP209      0.0810
     94  CE3       -2.8960   29.0600    1.8730 C.ar  209  TRP209      0.0012
     95  CZ2       -2.1760   28.1180   -0.7080 C.ar  209  TRP209      0.0191
     96  CZ3       -3.0010   27.7010    1.5280 C.ar  209  TRP209      0.0001
     97  CH2       -2.6560   27.2540    0.2450 C.ar  209  TRP209      0.0015
     98  N          2.3640   31.0590    4.9620 N.3   213  GLU213     -0.1231
     99  CA         2.4280   29.9950    3.9590 C.3   213  GLU213      0.1699
    100  C          3.4390   30.2200    2.8320 C.2   213  GLU213      0.2592
    101  O          4.3330   29.3930    2.6190 O.2   213  GLU213     -0.2718
    102  CB         1.0480   29.7450    3.3400 C.3   213  GLU213      0.0402
    103  CG         0.0200   29.1670    4.2900 C.3   213  GLU213      0.1161
    104  CD         0.4860   27.8920    4.9580 C.2   213  GLU213      0.3649
    105  OE1        1.3070   27.1580    4.3700 O.co2 213  GLU213     -0.2457
    106  OE2        0.0210   27.6070    6.0790 O.co2 213  GLU213     -0.2457
    107  N          3.3110   31.3270    2.1060 N.am  214  PHE214     -0.1976
    108  CA         4.2230   31.5680    0.9950 C.3   214  PHE214      0.1639
    109  C          4.9170   32.9170    1.0400 C.2   214  PHE214      0.2290
    110  O          5.3390   33.4460    0.0080 O.2   214  PHE214     -0.2864
    111  CB         3.4870   31.3680   -0.3460 C.3   214  PHE214      0.0560
    112  CG         2.9450   29.9760   -0.5320 C.ar  214  PHE214     -0.0200
    113  CD1        1.6810   29.6350   -0.0590 C.ar  214  PHE214     -0.0042
    114  CD2        3.7180   28.9960   -1.1520 C.ar  214  PHE214     -0.0042
    115  CE1        1.1890   28.3300   -0.1990 C.ar  214  PHE214     -0.0003
    116  CE2        3.2410   27.6900   -1.3020 C.ar  214  PHE214     -0.0003
    117  CZ         1.9740   27.3490   -0.8270 C.ar  214  PHE214     -0.0000
    118  N          4.8150   26.8780    3.1340 N.3   229  GLY229     -0.1225
    119  CA         4.5460   26.2800    1.8420 C.3   229  GLY229      0.1811
    120  C          5.7490   26.2600    0.9230 C.2   229  GLY229      0.2280
    121  O          5.8540   25.4230    0.0210 O.2   229  GLY229     -0.2866
    122  N          8.6230   23.6810    2.5450 N.3   232  SER232     -0.1202
    123  CA         8.3870   22.2340    2.5080 C.3   232  SER232      0.2020
    124  C          8.3340   21.6280    1.0970 C.2   232  SER232      0.2619
    125  O          8.1910   20.4100    0.9400 O.2   232  SER232     -0.2717
    126  CB         7.1170   21.8520    3.2920 C.3   232  SER232      0.2103
    127  OG         5.9310   22.2200    2.6170 O.3   232  SER232     -0.2182
    128  N          8.4870   22.4740    0.0820 N.am  233  SER233     -0.1951
    129  CA         8.4660   22.0330   -1.3120 C.3   233  SER233      0.1924
    130  C          9.7570   22.4560   -2.0290 C.2   233  SER233      0.2314
    131  O          9.8920   23.6150   -2.4340 O.2   233  SER233     -0.2863
    132  CB         7.2490   22.6390   -2.0370 C.3   233  SER233      0.2116
    133  OG         7.2790   22.3540   -3.4230 O.3   233  SER233     -0.2180
    134  N          8.9520   24.3470   -5.5310 N.3   236  GLU236     -0.1245
    135  CA         8.8080   25.7660   -5.7240 C.3   236  GLU236      0.1567
    136  C          9.6870   26.6110   -4.8230 C.2   236  GLU236      0.2260
    137  O          9.5880   27.8340   -4.8160 O.2   236  GLU236     -0.2867
    138  CB         7.3450   26.2230   -5.6460 C.3   236  GLU236      0.0388
    139  CG         6.6610   26.2400   -4.3280 C.3   236  GLU236      0.1160
    140  CD         5.2780   26.8780   -4.4490 C.2   236  GLU236      0.3649
    141  OE1        5.2050   28.0810   -4.7930 O.co2 236  GLU236     -0.2457
    142  OE2        4.2570   26.1810   -4.2230 O.co2 236  GLU236     -0.2457
@<TRIPOS>BOND
     1    39    41   ar
     2    39    37   ar
     3    41    42   ar
     4   135   138    1
     5   135   134    1
     6   135   136    1
     7    36    37    1
     8    36    33    1
     9   138   139    1
    10    37    38   ar
    11    42    43    1
    12    42    40   ar
    13    35    34    2
    14    32    33    1
    15   136   137    2
    16    38    40   ar
    17   141   140   ar
    18     4     3    2
    19    33    34    1
    20   140   139    1
    21   140   142   ar
    22    34    44   am
    23    57    56    1
    24    57    51    1
    25    56    55    1
    26    55    52    1
    27     3     2    1
    28    44    45    1
    29   133   132    1
    30    51    52    1
    31    51    46   am
    32    45    46    1
    33    45    48    1
    34    52    53    1
    35    46    47    2
    36     5     2    1
    37     5     6    1
    38   131   130    2
    39     2     1    1
    40    48    49    1
    41    48    50    1
    42   132   129    1
    43   130   129    1
    44    53    58   am
    45    53    54    2
    46   129   128    1
    47   116   114   ar
    48   116   117   ar
    49     6     8   ar
    50     6     7   ar
    51   114   112   ar
    52    92    93   ar
    53    92    90   ar
    54    58    59    1
    55    30    29    1
    56     8    10   ar
    57   117   115   ar
    58    95    93   ar
    59    95    97   ar
    60    27    26    1
    61    27    28    1
    62    23    24    2
    63    23    22    1
    64    66    64   ar
    65     7     9   ar
    66   112   111    1
    67   112   113   ar
    68    26    25    1
    69    63    64    1
    70    63    62    1
    71    25    22    1
    72    93    91   ar
    73   111   108    1
    74    90    89   ar
    75   115   113   ar
    76   110   109    2
    77   121   120    2
    78   128   124   am
    79    64    65   ar
    80    22    21    1
    81    29    28    2
    82    29    31    1
    83    97    96   ar
    84    10    11   ar
    85    59    62    1
    86    59    60    1
    87     9    11   ar
    88    89    91   ar
    89    89    88    1
    90    91    94   ar
    91    11    12    1
    92   120   119    1
    93   125   124    2
    94   108   109    1
    95   108   107    1
    96   124   123    1
    97    61    60    2
    98    60    67   am
    99    96    94   ar
   100   119   118    1
   101    88    85    1
   102   107   100   am
   103    87    86    2
   104    20    18    1
   105    86    85    1
   106   123   122    1
   107   123   126    1
   108   127   126    1
   109   101   100    2
   110    67    73    1
   111    67    68    1
   112   100    99    1
   113    73    72    1
   114    85    84    1
   115   102    99    1
   116   102   103    1
   117    68    69    1
   118    68    71    1
   119    18    17    1
   120    18    19    1
   121    99    98    1
   122    80    82   ar
   123    80    79   ar
   124    17    14    1
   125   103   104    1
   126    78    79    1
   127    78    75    1
   128   105   104   ar
   129    82    83   ar
   130    69    70    2
   131    79    81   ar
   132    72    71    1
   133   104   106   ar
   134    74    75    1
   135    83    81   ar
   136    75    76    1
   137    14    13    1
   138    14    15    1
   139    16    15    2
   140    76    77    2
