@<TRIPOS>MOLECULE
tmp/1kw1A00.pdb
 159 147 0 0 0
SMALL
GASTEIGER

@<TRIPOS>ATOM
      1  N         69.5750   18.5960   21.0380 N.3     7  ALA7       -0.1245
      2  CA        68.2800   18.5880   20.3660 C.3     7  ALA7        0.1562
      3  C         68.3420   19.3640   19.0580 C.2     7  ALA7        0.2260
      4  O         68.6480   20.5610   19.0490 O.2     7  ALA7       -0.2867
      5  CB        67.2060   19.1950   21.2690 C.3     7  ALA7        0.0290
      6  N         66.2520   20.9180   16.6740 N.3     9  ASP9       -0.1239
      7  CA        64.9200   21.4320   16.3810 C.3     9  ASP9        0.1674
      8  C         64.9460   22.3610   15.1730 C.2     9  ASP9        0.2266
      9  O         64.4660   23.4870   15.2300 O.2     9  ASP9       -0.2867
     10  CB        64.3500   22.1650   17.6000 C.3     9  ASP9        0.1410
     11  CG        63.9020   21.2080   18.6920 C.2     9  ASP9        0.3668
     12  OD1       63.1180   20.2800   18.3840 O.co2   9  ASP9       -0.2456
     13  OD2       64.3300   21.3810   19.8520 O.co2   9  ASP9       -0.2456
     14  N         69.6000   14.0290   18.8970 N.3    31  GLU31      -0.1245
     15  CA        68.1580   13.9410   18.8070 C.3    31  GLU31       0.1567
     16  C         67.5460   14.6360   17.5980 C.2    31  GLU31       0.2260
     17  O         67.8810   15.7770   17.2740 O.2    31  GLU31      -0.2867
     18  CB        67.5320   14.5200   20.0700 C.3    31  GLU31       0.0388
     19  CG        66.0330   14.7300   19.9680 C.3    31  GLU31       0.1160
     20  CD        65.5670   15.8780   20.8300 C.2    31  GLU31       0.3649
     21  OE1       66.0880   16.0210   21.9610 O.co2  31  GLU31      -0.2457
     22  OE2       64.6800   16.6350   20.3790 O.co2  31  GLU31      -0.2457
     23  N         61.2220   17.1240   17.2800 N.3    34  THR34      -0.1203
     24  CA        59.8890   16.9390   16.7260 C.3    34  THR34       0.1994
     25  C         59.7390   17.8560   15.5170 C.2    34  THR34       0.2617
     26  O         59.1550   17.4790   14.4960 O.2    34  THR34      -0.2717
     27  CB        58.8270   17.2780   17.7750 C.3    34  THR34       0.1784
     28  OG1       59.1250   16.5640   18.9810 O.3    34  THR34      -0.2211
     29  CG2       57.4290   16.8850   17.2810 C.3    34  THR34       0.0376
     30  N         60.2940   19.0600   15.6410 N.am   35  ILE35      -0.1979
     31  CA        60.2570   20.0550   14.5770 C.3    35  ILE35       0.1595
     32  C         60.9470   19.5110   13.3250 C.2    35  ILE35       0.2287
     33  O         60.5050   19.7760   12.2140 O.2    35  ILE35      -0.2864
     34  CB        60.9250   21.3760   15.0480 C.3    35  ILE35       0.0276
     35  CG1       60.0410   22.0300   16.1220 C.3    35  ILE35       0.0022
     36  CG2       61.1270   22.3310   13.8750 C.3    35  ILE35       0.0022
     37  CD1       60.7180   23.1480   16.9210 C.3    35  ILE35       0.0001
     38  N         62.5100   12.1280   18.3970 N.3    60  ASP60      -0.1239
     39  CA        61.5130   12.7030   19.2870 C.3    60  ASP60       0.1674
     40  C         60.1940   12.8070   18.5310 C.2    60  ASP60       0.2266
     41  O         59.7310   13.8980   18.1880 O.2    60  ASP60      -0.2867
     42  CB        61.9570   14.0860   19.7870 C.3    60  ASP60       0.1410
     43  CG        61.1290   14.5650   20.9680 C.2    60  ASP60       0.3668
     44  OD1       60.1010   13.9350   21.2760 O.co2  60  ASP60      -0.2456
     45  OD2       61.4920   15.5700   21.5970 O.co2  60  ASP60      -0.2456
     46  N         57.2480   11.7940   19.7240 N.3    62  LYS62      -0.1245
     47  CA        56.1210   12.0430   20.6210 C.3    62  LYS62       0.1561
     48  C         54.8800   11.2440   20.1930 C.2    62  LYS62       0.2260
     49  O         53.7800   11.7900   20.0790 O.2    62  LYS62      -0.2867
     50  CB        55.7940   13.5430   20.6500 C.3    62  LYS62       0.0271
     51  CG        56.8260   14.4060   21.3800 C.3    62  LYS62       0.0035
     52  CD        56.4780   15.8940   21.2970 C.3    62  LYS62       0.0206
     53  CE        57.3280   16.7520   22.2450 C.3    62  LYS62       0.1093
     54  NZ        58.7930   16.7030   21.9520 N.3    62  LYS62      -0.1314
     55  N         57.6940   11.0450   27.0990 N.3   110  GLU110     -0.1245
     56  CA        57.8560   12.4970   27.0550 C.3   110  GLU110      0.1567
     57  C         56.8930   13.1470   28.0480 C.2   110  GLU110      0.2260
     58  O         55.6860   13.1730   27.8210 O.2   110  GLU110     -0.2867
     59  CB        57.5420   13.0130   25.6470 C.3   110  GLU110      0.0388
     60  CG        58.7380   13.5030   24.8430 C.3   110  GLU110      0.1160
     61  CD        59.3560   14.7450   25.4350 C.2   110  GLU110      0.3649
     62  OE1       58.6240   15.5070   26.0970 O.co2 110  GLU110     -0.2457
     63  OE2       60.5650   14.9660   25.2310 O.co2 110  GLU110     -0.2457
     64  N         55.8390   16.0220   28.6330 N.3   112  THR112     -0.1218
     65  CA        55.5940   17.3670   28.1340 C.3   112  THR112      0.1862
     66  C         54.1210   17.6590   28.3630 C.2   112  THR112      0.2287
     67  O         53.2520   17.0480   27.7400 O.2   112  THR112     -0.2866
     68  CB        55.9020   17.4760   26.6160 C.3   112  THR112      0.1770
     69  OG1       57.3210   17.5480   26.4150 O.3   112  THR112     -0.2211
     70  CG2       55.2350   18.7120   26.0120 C.3   112  THR112      0.0375
     71  N         60.2680   17.2790   31.0170 N.3   134  HIS134     -0.1241
     72  CA        60.4150   18.4610   30.1850 C.3   134  HIS134      0.1621
     73  C         59.6780   19.7230   30.6120 C.2   134  HIS134      0.2264
     74  O         58.4710   19.6970   30.8400 O.2   134  HIS134     -0.2867
     75  CB        59.9940   18.0970   28.7520 C.3   134  HIS134      0.0745
     76  CG        60.1150   19.2250   27.7770 C.ar  134  HIS134      0.0817
     77  ND1       59.2980   19.3430   26.6720 N.ar  134  HIS134     -0.2268
     78  CD2       60.9490   20.2920   27.7440 C.ar  134  HIS134      0.1154
     79  CE1       59.6210   20.4360   26.0040 C.ar  134  HIS134      0.1986
     80  NE2       60.6200   21.0300   26.6330 N.ar  134  HIS134     -0.2212
     81  N         58.5760   24.5050   26.3790 N.3   137  ARG137     -0.1245
     82  CA        59.1580   25.6870   25.7600 C.3   137  ARG137      0.1563
     83  C         58.1710   26.8590   25.8110 C.2   137  ARG137      0.2260
     84  O         58.5490   27.9890   26.1390 O.2   137  ARG137     -0.2867
     85  CB        59.5280   25.3650   24.3140 C.3   137  ARG137      0.0307
     86  CG        60.1430   26.5010   23.5330 C.3   137  ARG137      0.0489
     87  CD        60.7400   25.9440   22.2580 C.3   137  ARG137      0.2205
     88  NE        61.3720   26.9600   21.4270 N.pl3 137  ARG137     -0.0865
     89  CZ        62.1850   26.6820   20.4140 C.cat 137  ARG137      0.5346
     90  NH1       62.4650   25.4190   20.1160 N.pl3 137  ARG137      0.1354
     91  NH2       62.7080   27.6620   19.6910 N.pl3 137  ARG137      0.1354
     92  N         65.2000   18.2210   30.6210 N.3   167  THR167     -0.1203
     93  CA        65.3070   19.1060   29.4640 C.3   167  THR167      0.1994
     94  C         64.3340   20.2710   29.5440 C.2   167  THR167      0.2618
     95  O         63.3880   20.2460   30.3290 O.2   167  THR167     -0.2717
     96  CB        65.0340   18.3440   28.1470 C.3   167  THR167      0.1784
     97  OG1       65.2750   19.2200   27.0400 O.3   167  THR167     -0.2211
     98  CG2       63.5760   17.8450   28.0940 C.3   167  THR167      0.0376
     99  N         64.5700   21.2870   28.7200 N.am  168  GLY168     -0.1942
    100  CA        63.6940   22.4470   28.7040 C.3   168  GLY168      0.2014
    101  C         64.4370   23.7540   28.8930 C.2   168  GLY168      0.2639
    102  O         64.4770   24.3000   29.9980 O.2   168  GLY168     -0.2714
    103  N         65.0260   24.2550   27.8080 N.am  169  GLY169     -0.1939
    104  CA        65.7680   25.5020   27.8620 C.3   169  GLY169      0.2014
    105  C         66.8280   25.5310   28.9520 C.2   169  GLY169      0.2638
    106  O         66.9690   26.5340   29.6550 O.2   169  GLY169     -0.2714
    107  N         67.5640   24.4310   29.1040 N.am  170  LEU170     -0.1977
    108  CA        68.6190   24.3540   30.1130 C.3   170  LEU170      0.1596
    109  C         69.8370   25.1700   29.7070 C.2   170  LEU170      0.2287
    110  O         70.3100   25.0770   28.5720 O.2   170  LEU170     -0.2864
    111  CB        69.0730   22.9060   30.3370 C.3   170  LEU170      0.0297
    112  CG        68.1640   21.9180   31.0710 C.3   170  LEU170      0.0022
    113  CD1       68.8890   20.5800   31.2000 C.3   170  LEU170      0.0001
    114  CD2       67.8070   22.4600   32.4470 C.3   170  LEU170      0.0001
    115  N         69.5540   17.3510   28.2490 N.3   187  ILE187     -0.1231
    116  CA        69.3560   17.7850   26.8730 C.3   187  ILE187      0.1692
    117  C         69.5580   19.2890   26.7220 C.2   187  ILE187      0.2592
    118  O         69.0510   20.0770   27.5220 O.2   187  ILE187     -0.2718
    119  CB        67.9400   17.4700   26.3530 C.3   187  ILE187      0.0266
    120  CG1       67.6480   15.9740   26.4580 C.3   187  ILE187      0.0019
    121  CG2       67.8150   17.9400   24.9020 C.3   187  ILE187      0.0020
    122  CD1       66.2420   15.5970   25.9760 C.3   187  ILE187      0.0001
    123  N         70.3040   19.6760   25.6930 N.am  188  ALA188     -0.1966
    124  CA        70.5420   21.0870   25.4070 C.3   188  ALA188      0.1728
    125  C         70.2520   21.3000   23.9260 C.2   188  ALA188      0.2617
    126  O         70.8090   20.6070   23.0680 O.2   188  ALA188     -0.2715
    127  CB        71.9860   21.4670   25.7210 C.3   188  ALA188      0.0334
    128  N         69.3570   22.2390   23.6340 N.am  189  GLY189     -0.1940
    129  CA        69.0200   22.5300   22.2530 C.3   189  GLY189      0.2014
    130  C         69.5030   23.9180   21.8790 C.2   189  GLY189      0.2639
    131  O         70.5900   24.0860   21.3140 O.2   189  GLY189     -0.2714
    132  N         68.6970   24.9190   22.2180 N.am  190  ARG190     -0.1963
    133  CA        69.0170   26.3100   21.9240 C.3   190  ARG190      0.1729
    134  C         70.3280   26.7980   22.5460 C.2   190  ARG190      0.2616
    135  O         71.0470   27.5950   21.9330 O.2   190  ARG190     -0.2715
    136  CB        67.8670   27.2170   22.3820 C.3   190  ARG190      0.0348
    137  CG        66.6200   27.1790   21.4930 C.3   190  ARG190      0.0492
    138  CD        65.4200   27.7990   22.2180 C.3   190  ARG190      0.2205
    139  NE        65.0110   26.9720   23.3530 N.pl3 190  ARG190     -0.0865
    140  CZ        64.1050   27.3170   24.2650 C.cat 190  ARG190      0.5346
    141  NH1       63.8100   26.4790   25.2560 N.pl3 190  ARG190      0.1354
    142  NH2       63.4970   28.4960   24.1980 N.pl3 190  ARG190      0.1354
    143  N         70.6470   26.3240   23.7500 N.am  191  SER191     -0.1950
    144  CA        71.8670   26.7650   24.4220 C.3   191  SER191      0.1924
    145  C         73.1440   26.2960   23.7290 C.2   191  SER191      0.2314
    146  O         74.2270   26.8180   23.9970 O.2   191  SER191     -0.2863
    147  CB        71.8720   26.3200   25.8920 C.3   191  SER191      0.2116
    148  OG        71.9920   24.9160   26.0090 O.3   191  SER191     -0.2180
    149  N         72.9360   25.0620   20.0590 N.3   193  ARG193     -0.1245
    150  CA        72.7180   25.4580   18.6720 C.3   193  ARG193      0.1563
    151  C         72.9040   26.9540   18.4460 C.2   193  ARG193      0.2260
    152  O         73.4910   27.3680   17.4450 O.2   193  ARG193     -0.2867
    153  CB        71.3070   25.0780   18.2040 C.3   193  ARG193      0.0307
    154  CG        71.0070   23.5900   18.1330 C.3   193  ARG193      0.0489
    155  CD        69.8600   23.3420   17.1520 C.3   193  ARG193      0.2205
    156  NE        68.7700   24.3030   17.3280 N.pl3 193  ARG193     -0.0865
    157  CZ        67.8470   24.2430   18.2850 C.cat 193  ARG193      0.5346
    158  NH1       67.8540   23.2560   19.1780 N.pl3 193  ARG193      0.1354
    159  NH2       66.9150   25.1850   18.3590 N.pl3 193  ARG193      0.1354
@<TRIPOS>BOND
     1    33    32    2
     2    32    31    1
     3    36    34    1
     4    26    25    2
     5    31    34    1
     6    31    30    1
     7    34    35    1
     8     8     9    2
     9     8     7    1
    10    25    30   am
    11    25    24    1
    12    35    37    1
    13     7     6    1
    14     7    10    1
    15    24    23    1
    16    24    27    1
    17   155   156    1
    18   155   154    1
    19    17    16    2
    20    29    27    1
    21   156   157    2
    22   152   151    2
    23    16    15    1
    24    10    11    1
    25    27    28    1
    26   154   153    1
    27    41    40    2
    28   153   150    1
    29   157   159    1
    30   157   158    1
    31    12    11   ar
    32    38    39    1
    33   151   150    1
    34    40    39    1
    35   150   149    1
    36    11    13   ar
    37    15    14    1
    38    15    18    1
    39     4     3    2
    40     3     2    1
    41    39    42    1
    42    91    89    1
    43    46    47    1
    44    42    43    1
    45    19    18    1
    46    19    20    1
    47    49    48    2
    48    90    89    1
    49    48    47    1
    50     2     1    1
    51     2     5    1
    52    22    20   ar
    53    89    88    2
    54    47    50    1
    55    50    51    1
    56    20    21   ar
    57    43    44   ar
    58    43    45   ar
    59    52    51    1
    60    52    53    1
    61   131   130    2
    62    88    87    1
    63   137   138    1
    64   137   136    1
    65   130   132   am
    66   130   129    1
    67   133   132    1
    68   133   136    1
    69   133   134    1
    70   135   134    2
    71    54    53    1
    72   138   139    1
    73   129   128    1
    74    87    86    1
    75   134   143   am
    76   126   125    2
    77   139   140    2
    78    86    85    1
    79   128   125   am
    80   145   146    2
    81   145   144    1
    82   143   144    1
    83   125   124    1
    84   142   140    1
    85   140   141    1
    86    85    82    1
    87   144   147    1
    88    60    61    1
    89    60    59    1
    90   121   119    1
    91    63    61   ar
    92   124   123    1
    93   124   127    1
    94    61    62   ar
    95    59    56    1
    96   123   117   am
    97    82    83    1
    98    82    81    1
    99    83    84    2
   100   147   148    1
   101   122   120    1
   102    79    80   ar
   103    79    77   ar
   104    70    68    1
   105   119   120    1
   106   119   116    1
   107    69    68    1
   108    68    65    1
   109    80    78   ar
   110    77    76   ar
   111   117   116    1
   112   117   118    2
   113   116   115    1
   114    97    96    1
   115    56    55    1
   116    56    57    1
   117    67    66    2
   118    78    76   ar
   119    76    75    1
   120   103   104    1
   121   103   101   am
   122    58    57    2
   123   104   105    1
   124    98    96    1
   125    65    66    1
   126    65    64    1
   127    96    93    1
   128   110   109    2
   129   100    99    1
   130   100   101    1
   131    99    94   am
   132    75    72    1
   133   101   102    2
   134   105   107   am
   135   105   106    2
   136   107   108    1
   137    93    94    1
   138    93    92    1
   139    94    95    2
   140   109   108    1
   141   108   111    1
   142    72    73    1
   143    72    71    1
   144   111   112    1
   145    73    74    2
   146   112   113    1
   147   112   114    1
