@<TRIPOS>MOLECULE
tmp/1kwfA00.pdb
 252 246 0 0 0
SMALL
GASTEIGER

@<TRIPOS>ATOM
      1  N          9.0870   24.6950   24.7340 N.3    52  ARG52      -0.1231
      2  CA         8.1500   25.7970   24.6200 C.3    52  ARG52       0.1694
      3  C          6.9710   25.3280   23.7560 C.2    52  ARG52       0.2592
      4  O          6.7290   24.1190   23.5940 O.2    52  ARG52      -0.2718
      5  CB         8.8360   27.0620   24.1690 C.3    52  ARG52       0.0321
      6  CG         9.9130   27.5510   25.1340 C.3    52  ARG52       0.0489
      7  CD        10.1750   29.0520   25.0080 C.3    52  ARG52       0.2205
      8  NE        10.8590   29.3730   23.7580 N.pl3  52  ARG52      -0.0865
      9  CZ        11.2230   30.5990   23.4320 C.cat  52  ARG52       0.5346
     10  NH1       11.0210   31.6170   24.2410 N.pl3  52  ARG52       0.1354
     11  NH2       11.8230   30.7990   22.2520 N.pl3  52  ARG52       0.1354
     12  N          6.1490   26.2640   23.2920 N.am   53  ASP53      -0.1974
     13  CA         4.8740   25.9800   22.7000 C.3    53  ASP53       0.1709
     14  C          4.9080   26.1590   21.1810 C.2    53  ASP53       0.2293
     15  O          5.9690   26.4010   20.5730 O.2    53  ASP53      -0.2864
     16  CB         3.7860   26.8190   23.3880 C.3    53  ASP53       0.1436
     17  CG         4.1340   28.3060   23.4060 C.2    53  ASP53       0.3671
     18  OD1        4.7760   28.7340   22.4060 O.co2  53  ASP53      -0.2456
     19  OD2        3.7930   28.9980   24.3870 O.co2  53  ASP53      -0.2456
     20  N          3.9660   28.5360   19.4290 N.3    55  SER55      -0.1217
     21  CA         4.3030   29.8800   18.9760 C.3    55  SER55       0.1889
     22  C          5.8070   30.0500   18.6840 C.2    55  SER55       0.2288
     23  O          6.1660   30.9610   17.9460 O.2    55  SER55      -0.2866
     24  CB         3.8240   30.9350   19.9920 C.3    55  SER55       0.2089
     25  OG         4.6800   31.0640   21.1080 O.3    55  SER55      -0.2183
     26  N         14.3960   26.7490   25.7990 N.3    61  VAL61      -0.1231
     27  CA        15.2750   27.7660   26.3640 C.3    61  VAL61       0.1692
     28  C         15.7380   27.2750   27.7160 C.2    61  VAL61       0.2593
     29  O         15.0510   26.5170   28.4340 O.2    61  VAL61      -0.2718
     30  CB        14.6120   29.1660   26.4300 C.3    61  VAL61       0.0266
     31  CG1       14.4270   29.7090   25.0180 C.3    61  VAL61       0.0020
     32  CG2       13.2900   29.1350   27.1750 C.3    61  VAL61       0.0020
     33  N         16.9370   27.7160   28.1130 N.am   62  SER62      -0.1938
     34  CA        17.4520   27.2840   29.4000 C.3    62  SER62       0.2055
     35  C         16.5140   27.6560   30.5490 C.2    62  SER62       0.2642
     36  O         16.3860   26.9150   31.5190 O.2    62  SER62      -0.2714
     37  CB        18.8710   27.7690   29.6460 C.3    62  SER62       0.2130
     38  OG        18.9010   29.2090   29.5430 O.3    62  SER62      -0.2179
     39  N         15.8010   28.7900   30.4050 N.am   63  GLN63      -0.1976
     40  CA        14.8180   29.1810   31.4080 C.3    63  GLN63       0.1601
     41  C         13.8240   28.0670   31.6880 C.2    63  GLN63       0.2287
     42  O         13.4050   27.8680   32.8280 O.2    63  GLN63      -0.2864
     43  CB        14.0840   30.3980   30.8780 C.3    63  GLN63       0.0394
     44  CG        12.7130   30.6290   31.4390 C.3    63  GLN63       0.0908
     45  CD        11.9900   31.6160   30.5660 C.2    63  GLN63       0.2608
     46  OE1       11.2850   31.2790   29.6180 O.2    63  GLN63      -0.2717
     47  NE2       12.0830   32.8670   30.9290 N.am   63  GLN63      -0.0878
     48  N         21.4990   28.9780   26.1180 N.3   100  TRP100     -0.1241
     49  CA        20.1710   29.5050   26.4210 C.3   100  TRP100      0.1605
     50  C         19.1270   29.1000   25.4180 C.2   100  TRP100      0.2264
     51  O         17.9380   29.0970   25.7900 O.2   100  TRP100     -0.2867
     52  CB        20.1820   31.0290   26.6030 C.3   100  TRP100      0.0550
     53  CG        20.0970   31.8790   25.3700 C.ar  100  TRP100      0.0003
     54  CD1       21.1180   32.3520   24.6120 C.ar  100  TRP100      0.0946
     55  CD2       18.8840   32.3460   24.7510 C.ar  100  TRP100      0.0152
     56  NE1       20.6250   33.1040   23.5710 N.ar  100  TRP100     -0.2442
     57  CE2       19.2500   33.1160   23.6280 C.ar  100  TRP100      0.0810
     58  CE3       17.5290   32.1910   25.0420 C.ar  100  TRP100      0.0012
     59  CZ2       18.3210   33.7160   22.7820 C.ar  100  TRP100      0.0191
     60  CZ3       16.5950   32.8030   24.2060 C.ar  100  TRP100      0.0001
     61  CH2       17.0070   33.5310   23.0930 C.ar  100  TRP100      0.0015
     62  N         21.3420   34.1640   17.3880 N.3   112  ASP112     -0.1225
     63  CA        20.9110   34.9000   18.5610 C.3   112  ASP112      0.1805
     64  C         21.8190   34.5400   19.7460 C.2   112  ASP112      0.2598
     65  O         21.4340   34.7030   20.9020 O.2   112  ASP112     -0.2718
     66  CB        19.4630   34.5840   18.8640 C.3   112  ASP112      0.1424
     67  CG        19.2040   33.1310   19.1730 C.2   112  ASP112      0.3668
     68  OD1       20.1850   32.3280   19.0580 O.co2 112  ASP112     -0.2456
     69  OD2       18.0390   32.7980   19.4840 O.co2 112  ASP112     -0.2456
     70  N         23.0340   34.0760   19.4670 N.am  113  GLY113     -0.1957
     71  CA        23.9350   33.7830   20.5590 C.3   113  GLY113      0.1869
     72  C         23.4380   32.6830   21.4690 C.2   113  GLY113      0.2309
     73  O         23.6320   32.7550   22.7010 O.2   113  GLY113     -0.2863
     74  N         25.4670   31.2120   24.4290 N.3   116  GLY116     -0.1210
     75  CA        25.6380   31.9460   25.6510 C.3   116  GLY116      0.1956
     76  C         24.5600   31.5930   26.6600 C.2   116  GLY116      0.2612
     77  O         23.4810   31.0940   26.3030 O.2   116  GLY116     -0.2717
     78  N         24.8580   31.8530   27.9380 N.am  117  ALA117     -0.1965
     79  CA        23.9430   31.5130   29.0210 C.3   117  ALA117      0.1728
     80  C         23.1140   32.7160   29.4550 C.2   117  ALA117      0.2616
     81  O         23.5240   33.8830   29.2480 O.2   117  ALA117     -0.2715
     82  CB        24.7100   30.9290   30.1860 C.3   117  ALA117      0.0334
     83  N         21.9640   32.4300   30.0330 N.am  118  ALA118     -0.1977
     84  CA        21.0640   33.4170   30.6360 C.3   118  ALA118      0.1597
     85  C         21.0590   33.1870   32.1480 C.2   118  ALA118      0.2287
     86  O         20.7180   32.0920   32.6200 O.2   118  ALA118     -0.2864
     87  CB        19.6650   33.2910   30.0920 C.3   118  ALA118      0.0319
     88  N         19.2790   33.9860   34.7570 N.3   120  ASP120     -0.1225
     89  CA        18.0980   33.5430   35.5050 C.3   120  ASP120      0.1805
     90  C         17.8860   32.0330   35.3640 C.2   120  ASP120      0.2597
     91  O         17.4830   31.3590   36.3200 O.2   120  ASP120     -0.2718
     92  CB        16.8550   34.3220   35.0910 C.3   120  ASP120      0.1424
     93  CG        16.4590   34.3160   33.6490 C.2   120  ASP120      0.3668
     94  OD1       17.2950   34.0770   32.7660 O.co2 120  ASP120     -0.2456
     95  OD2       15.2180   34.5660   33.3930 O.co2 120  ASP120     -0.2456
     96  N         18.1370   31.4910   34.1650 N.am  121  ALA121     -0.1979
     97  CA        17.9740   30.0570   33.9570 C.3   121  ALA121      0.1597
     98  C         18.9310   29.2810   34.8700 C.2   121  ALA121      0.2287
     99  O         18.5210   28.3730   35.5990 O.2   121  ALA121     -0.2864
    100  CB        18.2540   29.7300   32.5170 C.3   121  ALA121      0.0319
    101  N         23.3090   39.7390   33.0580 N.3   169  PRO169     -0.2116
    102  CA        22.2140   38.9750   32.4360 C.3   169  PRO169      0.1372
    103  C         22.6750   37.7320   31.7040 C.2   169  PRO169      0.2244
    104  O         21.8430   36.8860   31.3510 O.2   169  PRO169     -0.2868
    105  CB        21.5590   40.0090   31.5200 C.3   169  PRO169      0.0268
    106  CG        22.7320   40.8880   31.1090 C.3   169  PRO169      0.0207
    107  CD        23.5620   41.0240   32.3610 C.3   169  PRO169      0.0892
    108  N         28.4760   36.2890   29.3780 N.3   172  ARG172     -0.1231
    109  CA        29.4290   36.9890   28.5190 C.3   172  ARG172      0.1694
    110  C         28.9360   38.3570   28.0920 C.2   172  ARG172      0.2592
    111  O         29.5040   38.9610   27.1580 O.2   172  ARG172     -0.2718
    112  CB        29.7780   36.1160   27.3300 C.3   172  ARG172      0.0321
    113  CG        28.5470   35.7490   26.5380 C.3   172  ARG172      0.0489
    114  CD        29.0060   35.1220   25.2810 C.3   172  ARG172      0.2205
    115  NE        28.0700   34.7990   24.2260 N.pl3 172  ARG172     -0.0865
    116  CZ        27.9780   33.6670   23.5450 C.cat 172  ARG172      0.5346
    117  NH1       28.6410   32.5540   23.8720 N.pl3 172  ARG172      0.1354
    118  NH2       27.1250   33.6590   22.5530 N.pl3 172  ARG172      0.1354
    119  N         27.9840   38.9470   28.7800 N.am  173  TRP173     -0.1976
    120  CA        27.5700   40.3200   28.4570 C.3   173  TRP173      0.1640
    121  C         26.8740   40.9430   29.6410 C.2   173  TRP173      0.2290
    122  O         26.3500   40.2820   30.5520 O.2   173  TRP173     -0.2864
    123  CB        26.6580   40.3250   27.2190 C.3   173  TRP173      0.0576
    124  CG        25.3060   39.7210   27.4190 C.ar  173  TRP173      0.0006
    125  CD1       24.9830   38.3920   27.5530 C.ar  173  TRP173      0.0946
    126  CD2       24.0630   40.4300   27.5050 C.ar  173  TRP173      0.0152
    127  NE1       23.6390   38.2160   27.7250 N.ar  173  TRP173     -0.2442
    128  CE2       23.0400   39.4510   27.6720 C.ar  173  TRP173      0.0810
    129  CE3       23.7110   41.7700   27.4560 C.ar  173  TRP173      0.0012
    130  CZ2       21.6930   39.8160   27.7790 C.ar  173  TRP173      0.0191
    131  CZ3       22.3870   42.1120   27.5380 C.ar  173  TRP173      0.0001
    132  CH2       21.3970   41.1480   27.7010 C.ar  173  TRP173      0.0015
    133  N         15.6250   39.0390   37.0610 N.3   183  TYR183     -0.1241
    134  CA        16.5890   37.9920   37.3440 C.3   183  TYR183      0.1605
    135  C         17.0280   38.0330   38.8140 C.2   183  TYR183      0.2264
    136  O         17.6900   37.1030   39.2950 O.2   183  TYR183     -0.2867
    137  CB        17.8280   38.0840   36.4730 C.3   183  TYR183      0.0534
    138  CG        17.6840   37.8950   35.0020 C.ar  183  TYR183     -0.0201
    139  CD1       18.8400   37.7550   34.2430 C.ar  183  TYR183     -0.0009
    140  CD2       16.4680   37.8110   34.3380 C.ar  183  TYR183     -0.0009
    141  CE1       18.7970   37.5820   32.8700 C.ar  183  TYR183      0.0417
    142  CE2       16.4000   37.6420   32.9600 C.ar  183  TYR183      0.0417
    143  CZ        17.5680   37.5280   32.2240 C.ar  183  TYR183      0.1957
    144  OH        17.4500   37.3630   30.8630 O.3   183  TYR183     -0.2866
    145  N         14.5700   45.8090   31.7250 N.3   228  TRP228     -0.1241
    146  CA        16.0140   45.9540   31.6590 C.3   228  TRP228      0.1605
    147  C         16.3830   47.3620   32.1670 C.2   228  TRP228      0.2264
    148  O         15.6500   48.3240   31.9320 O.2   228  TRP228     -0.2867
    149  CB        16.5440   45.8310   30.2360 C.3   228  TRP228      0.0550
    150  CG        16.2070   44.5240   29.5780 C.ar  228  TRP228      0.0003
    151  CD1       15.0760   44.2590   28.8670 C.ar  228  TRP228      0.0946
    152  CD2       16.9920   43.3240   29.5690 C.ar  228  TRP228      0.0152
    153  NE1       15.0860   42.9570   28.4280 N.ar  228  TRP228     -0.2442
    154  CE2       16.2450   42.3560   28.8300 C.ar  228  TRP228      0.0810
    155  CE3       18.2180   42.9690   30.1110 C.ar  228  TRP228      0.0012
    156  CZ2       16.7330   41.0650   28.6360 C.ar  228  TRP228      0.0191
    157  CZ3       18.6840   41.6930   29.8970 C.ar  228  TRP228      0.0001
    158  CH2       17.9490   40.7500   29.1720 C.ar  228  TRP228      0.0015
    159  N         16.8650   48.2160   24.9120 N.3   239  GLN239     -0.1245
    160  CA        16.1470   47.2160   25.6980 C.3   239  GLN239      0.1566
    161  C         14.9400   47.8790   26.3730 C.2   239  GLN239      0.2260
    162  O         15.0130   49.0200   26.8040 O.2   239  GLN239     -0.2867
    163  CB        17.0700   46.6600   26.7880 C.3   239  GLN239      0.0367
    164  CG        18.2660   45.8830   26.2780 C.3   239  GLN239      0.0905
    165  CD        17.9960   44.4140   25.9570 C.2   239  GLN239      0.2608
    166  OE1       16.8480   43.9880   25.7550 O.2   239  GLN239     -0.2717
    167  NE2       19.0760   43.6190   25.9140 N.am  239  GLN239     -0.0878
    168  N          7.0180   41.2120   30.0110 N.3   245  TYR245     -0.1227
    169  CA         7.0580   39.7890   30.3200 C.3   245  TYR245      0.1736
    170  C          8.3600   39.3540   30.9950 C.2   245  TYR245      0.2595
    171  O          8.4160   38.2180   31.4790 O.2   245  TYR245     -0.2718
    172  CB         6.8050   38.9480   29.0450 C.3   245  TYR245      0.0548
    173  CG         5.3680   38.9700   28.5590 C.ar  245  TYR245     -0.0200
    174  CD1        4.7910   40.0900   27.9760 C.ar  245  TYR245     -0.0009
    175  CD2        4.5840   37.8210   28.6520 C.ar  245  TYR245     -0.0009
    176  CE1        3.4770   40.0860   27.5160 C.ar  245  TYR245      0.0417
    177  CE2        3.2700   37.7940   28.2060 C.ar  245  TYR245      0.0417
    178  CZ         2.7240   38.9250   27.6390 C.ar  245  TYR245      0.1957
    179  OH         1.4160   38.8720   27.2100 O.3   245  TYR245     -0.2866
    180  N          9.3680   40.2160   31.0640 N.am  246  ASP246     -0.1974
    181  CA        10.4960   39.9700   31.9600 C.3   246  ASP246      0.1709
    182  C         10.1350   40.3850   33.3940 C.2   246  ASP246      0.2293
    183  O         10.0920   39.5660   34.3110 O.2   246  ASP246     -0.2864
    184  CB        11.7710   40.6930   31.4960 C.3   246  ASP246      0.1436
    185  CG        12.3930   40.0020   30.2980 C.2   246  ASP246      0.3671
    186  OD1       11.9030   40.2490   29.1780 O.co2 246  ASP246     -0.2456
    187  OD2       13.3610   39.2560   30.5440 O.co2 246  ASP246     -0.2456
    188  N          8.2650   38.8330   36.6530 N.3   249  ARG249     -0.1245
    189  CA         8.7840   37.8780   37.6090 C.3   249  ARG249      0.1563
    190  C          9.3590   38.4880   38.8610 C.2   249  ARG249      0.2260
    191  O          9.5910   37.7730   39.8510 O.2   249  ARG249     -0.2867
    192  CB         9.8260   36.9820   36.9350 C.3   249  ARG249      0.0307
    193  CG         9.2250   36.1230   35.8600 C.3   249  ARG249      0.0489
    194  CD        10.2800   35.5350   34.9270 C.3   249  ARG249      0.2205
    195  NE        10.9340   36.6060   34.2090 N.pl3 249  ARG249     -0.0865
    196  CZ        11.8000   36.4110   33.2200 C.cat 249  ARG249      0.5346
    197  NH1       11.8980   35.2100   32.6920 N.pl3 249  ARG249      0.1354
    198  NH2       12.5570   37.4020   32.8090 N.pl3 249  ARG249      0.1354
    199  N         -0.8780   43.0350   30.6900 N.3   287  ASP287     -0.1239
    200  CA         0.4240   42.4990   30.3150 C.3   287  ASP287      0.1674
    201  C          1.3890   43.5400   29.8040 C.2   287  ASP287      0.2266
    202  O          2.2830   43.2510   29.0190 O.2   287  ASP287     -0.2867
    203  CB         0.3070   41.3640   29.2920 C.3   287  ASP287      0.1410
    204  CG        -0.1840   41.7950   27.9410 C.2   287  ASP287      0.3668
    205  OD1        0.1590   41.1230   26.9250 O.co2 287  ASP287     -0.2456
    206  OD2       -0.9710   42.7820   27.8700 O.co2 287  ASP287     -0.2456
    207  N          0.8870   35.1480   32.5010 N.3   303  SER303     -0.1217
    208  CA         2.2200   35.6920   32.7050 C.3   303  SER303      0.1889
    209  C          2.2750   36.7650   33.7680 C.2   303  SER303      0.2288
    210  O          3.3670   37.0650   34.2580 O.2   303  SER303     -0.2866
    211  CB         2.7750   36.2140   31.3770 C.3   303  SER303      0.2089
    212  OG         3.0330   35.1800   30.4550 O.3   303  SER303     -0.2183
    213  N          0.0110   29.4970   23.1830 N.3   337  TYR337     -0.1241
    214  CA         0.9280   30.2580   24.0210 C.3   337  TYR337      0.1605
    215  C          1.0930   29.6150   25.3930 C.2   337  TYR337      0.2264
    216  O          1.3920   30.3020   26.3680 O.2   337  TYR337     -0.2867
    217  CB         0.4740   31.7070   24.1280 C.3   337  TYR337      0.0534
    218  CG         0.6030   32.5520   22.8530 C.ar  337  TYR337     -0.0201
    219  CD1       -0.4730   33.2200   22.2900 C.ar  337  TYR337     -0.0009
    220  CD2        1.8320   32.8000   22.2510 C.ar  337  TYR337     -0.0009
    221  CE1       -0.3550   34.0480   21.1740 C.ar  337  TYR337      0.0417
    222  CE2        1.9440   33.6060   21.1350 C.ar  337  TYR337      0.0417
    223  CZ         0.8620   34.2370   20.5670 C.ar  337  TYR337      0.1957
    224  OH         1.1400   34.9560   19.4260 O.3   337  TYR337     -0.2866
    225  N          3.3110   27.8300   26.9880 N.3   339  TYR339     -0.1227
    226  CA         4.5570   27.6420   27.7240 C.3   339  TYR339      0.1736
    227  C          4.7430   28.6450   28.8700 C.2   339  TYR339      0.2595
    228  O          4.8970   28.2380   30.0380 O.2   339  TYR339     -0.2718
    229  CB         5.7590   27.7010   26.7560 C.3   339  TYR339      0.0548
    230  CG         7.0740   27.9260   27.4590 C.ar  339  TYR339     -0.0200
    231  CD1        7.6720   26.9420   28.2640 C.ar  339  TYR339     -0.0009
    232  CD2        7.7020   29.1510   27.4070 C.ar  339  TYR339     -0.0009
    233  CE1        8.8340   27.2000   28.9670 C.ar  339  TYR339      0.0417
    234  CE2        8.8390   29.4260   28.1050 C.ar  339  TYR339      0.0417
    235  CZ         9.4410   28.4430   28.9040 C.ar  339  TYR339      0.1957
    236  OH        10.5730   28.6630   29.6130 O.3   339  TYR339     -0.2866
    237  N          4.8380   29.9340   28.5630 N.am  340  TYR340     -0.1962
    238  CA         5.4710   30.8400   29.5410 C.3   340  TYR340      0.1771
    239  C          4.5560   31.1550   30.7080 C.2   340  TYR340      0.2620
    240  O          4.8860   30.9460   31.8840 O.2   340  TYR340     -0.2715
    241  CB         5.9570   32.1030   28.8410 C.3   340  TYR340      0.0574
    242  CG         6.6730   33.0480   29.7560 C.ar  340  TYR340     -0.0198
    243  CD1        7.8870   32.6790   30.3530 C.ar  340  TYR340     -0.0009
    244  CD2        6.1780   34.3190   30.0130 C.ar  340  TYR340     -0.0009
    245  CE1        8.5660   33.5410   31.1740 C.ar  340  TYR340      0.0417
    246  CE2        6.8820   35.2100   30.8300 C.ar  340  TYR340      0.0417
    247  CZ         8.0590   34.8320   31.4000 C.ar  340  TYR340      0.1957
    248  OH         8.8010   35.6700   32.1900 O.3   340  TYR340     -0.2866
    249  N          3.3840   31.7050   30.4080 N.am  341  GLY341     -0.1954
    250  CA         2.4740   32.0920   31.4650 C.3   341  GLY341      0.1869
    251  C          2.0560   30.9020   32.3150 C.2   341  GLY341      0.2309
    252  O          2.0050   31.0190   33.5460 O.2   341  GLY341     -0.2863
@<TRIPOS>BOND
     1    62    63    1
     2    23    22    2
     3    63    66    1
     4    63    64    1
     5    22    21    1
     6    66    67    1
     7    21    20    1
     8    21    24    1
     9    68    67   ar
    10    67    69   ar
    11   224   223    1
    12    70    64   am
    13    70    71    1
    14    64    65    2
    15    24    25    1
    16    71    72    1
    17   223   222   ar
    18   223   221   ar
    19    15    14    2
    20   222   220   ar
    21   221   219   ar
    22    14    13    1
    23    72    73    2
    24   220   218   ar
    25    11     9    1
    26   219   218   ar
    27    18    17   ar
    28   118   116    1
    29    13    12    1
    30    13    16    1
    31    59    61   ar
    32    59    57   ar
    33   218   217    1
    34    61    60   ar
    35   213   214    1
    36    12     3   am
    37    16    17    1
    38    17    19   ar
    39     9     8    2
    40     9    10    1
    41   116   117    1
    42   116   115    2
    43    56    57   ar
    44    56    54   ar
    45     4     3    2
    46    57    55   ar
    47     3     2    1
    48     8     7    1
    49   214   217    1
    50   214   215    1
    51     5     2    1
    52     5     6    1
    53    60    58   ar
    54   115   114    1
    55    74    75    1
    56    54    53   ar
    57     2     1    1
    58    55    58   ar
    59    55    53   ar
    60   159   160    1
    61     7     6    1
    62    31    30    1
    63   114   113    1
    64    53    52    1
    65   215   216    2
    66    50    51    2
    67    50    49    1
    68    75    76    1
    69   160   161    1
    70   160   163    1
    71   166   165    2
    72    26    27    1
    73   167   165   am
    74   165   164    1
    75    48    49    1
    76   164   163    1
    77    77    76    2
    78    27    30    1
    79    27    28    1
    80   161   162    2
    81    49    52    1
    82    30    32    1
    83   113   112    1
    84    76    78   am
    85   229   230    1
    86   229   226    1
    87   205   204   ar
    88   225   226    1
    89   111   110    2
    90   179   178    1
    91   123   124    1
    92   123   120    1
    93   112   109    1
    94   232   230   ar
    95   232   234   ar
    96   124   126   ar
    97   124   125   ar
    98   129   126   ar
    99   129   131   ar
   100   230   231   ar
   101   126   128   ar
   102   176   178   ar
   103   176   174   ar
   104   131   132   ar
   105   125   127   ar
   106   178   177   ar
   107   128   127   ar
   108   128   130   ar
   109   132   130   ar
   110    28    33   am
   111    28    29    2
   112   226   227    1
   113   206   204   ar
   114    78    79    1
   115   204   203    1
   116   174   173   ar
   117   110   109    1
   118   110   119   am
   119   234   235   ar
   120    33    34    1
   121   177   175   ar
   122   231   233   ar
   123   153   154   ar
   124   153   151   ar
   125   120   119    1
   126   120   121    1
   127   109   108    1
   128   173   175   ar
   129   173   172    1
   130   237   227   am
   131   237   238    1
   132   156   154   ar
   133   156   158   ar
   134   154   152   ar
   135   241   238    1
   136   241   242    1
   137   151   150   ar
   138   227   228    2
   139   235   233   ar
   140   235   236    1
   141   202   201    2
   142    79    80    1
   143    79    82    1
   144   172   169    1
   145   158   157   ar
   146   186   185   ar
   147    81    80    2
   148   203   200    1
   149    34    37    1
   150    34    35    1
   151    80    83   am
   152   238   239    1
   153    38    37    1
   154   152   150   ar
   155   152   155   ar
   156   150   149    1
   157    46    45    2
   158   121   122    2
   159   242   244   ar
   160   242   243   ar
   161   201   200    1
   162   157   155   ar
   163   168   169    1
   164   244   246   ar
   165    83    84    1
   166    87    84    1
   167   149   146    1
   168   185   187   ar
   169   185   184    1
   170   200   199    1
   171   169   170    1
   172   243   245   ar
   173    39    35   am
   174    39    40    1
   175   249   239   am
   176   249   250    1
   177   212   211    1
   178    35    36    2
   179    45    47   am
   180    45    44    1
   181    84    85    1
   182   239   240    2
   183   246   247   ar
   184   144   143    1
   185    43    40    1
   186    43    44    1
   187   170   180   am
   188   170   171    2
   189   180   181    1
   190   106   105    1
   191   106   107    1
   192   245   247   ar
   193   104   103    2
   194   211   208    1
   195   247   248    1
   196    40    41    1
   197   250   251    1
   198   184   181    1
   199   105   102    1
   200   146   145    1
   201   146   147    1
   202    41    42    2
   203   103   102    1
   204   148   147    2
   205   181   182    1
   206    85    86    2
   207   143   141   ar
   208   143   142   ar
   209   251   252    2
   210   107   101    1
   211   102   101    1
   212   207   208    1
   213   100    97    1
   214   197   196    1
   215   208   209    1
   216    94    93   ar
   217   198   196    1
   218   141   139   ar
   219   142   140   ar
   220   196   195    2
   221    95    93   ar
   222   182   183    2
   223    93    92    1
   224   209   210    2
   225    97    96    1
   226    97    98    1
   227    96    90   am
   228   195   194    1
   229   139   138   ar
   230   140   138   ar
   231    88    89    1
   232    98    99    2
   233   194   193    1
   234   138   137    1
   235    92    89    1
   236    90    89    1
   237    90    91    2
   238   193   192    1
   239   137   134    1
   240   188   189    1
   241   192   189    1
   242   133   134    1
   243   134   135    1
   244   189   190    1
   245   135   136    2
   246   190   191    2
