@<TRIPOS>MOLECULE
tmp/1kwfA01.pdb
 150 141 0 0 0
SMALL
GASTEIGER

@<TRIPOS>ATOM
      1  N          9.0870   24.6950   24.7340 N.3    52  ARG52      -0.1231
      2  CA         8.1500   25.7970   24.6200 C.3    52  ARG52       0.1694
      3  C          6.9710   25.3280   23.7560 C.2    52  ARG52       0.2592
      4  O          6.7290   24.1190   23.5940 O.2    52  ARG52      -0.2718
      5  CB         8.8360   27.0620   24.1690 C.3    52  ARG52       0.0321
      6  CG         9.9130   27.5510   25.1340 C.3    52  ARG52       0.0489
      7  CD        10.1750   29.0520   25.0080 C.3    52  ARG52       0.2205
      8  NE        10.8590   29.3730   23.7580 N.pl3  52  ARG52      -0.0865
      9  CZ        11.2230   30.5990   23.4320 C.cat  52  ARG52       0.5346
     10  NH1       11.0210   31.6170   24.2410 N.pl3  52  ARG52       0.1354
     11  NH2       11.8230   30.7990   22.2520 N.pl3  52  ARG52       0.1354
     12  N          6.1490   26.2640   23.2920 N.am   53  ASP53      -0.1974
     13  CA         4.8740   25.9800   22.7000 C.3    53  ASP53       0.1709
     14  C          4.9080   26.1590   21.1810 C.2    53  ASP53       0.2293
     15  O          5.9690   26.4010   20.5730 O.2    53  ASP53      -0.2864
     16  CB         3.7860   26.8190   23.3880 C.3    53  ASP53       0.1436
     17  CG         4.1340   28.3060   23.4060 C.2    53  ASP53       0.3671
     18  OD1        4.7760   28.7340   22.4060 O.co2  53  ASP53      -0.2456
     19  OD2        3.7930   28.9980   24.3870 O.co2  53  ASP53      -0.2456
     20  N          3.9660   28.5360   19.4290 N.3    55  SER55      -0.1217
     21  CA         4.3030   29.8800   18.9760 C.3    55  SER55       0.1889
     22  C          5.8070   30.0500   18.6840 C.2    55  SER55       0.2288
     23  O          6.1660   30.9610   17.9460 O.2    55  SER55      -0.2866
     24  CB         3.8240   30.9350   19.9920 C.3    55  SER55       0.2089
     25  OG         4.6800   31.0640   21.1080 O.3    55  SER55      -0.2183
     26  N         14.3960   26.7490   25.7990 N.3    61  VAL61      -0.1245
     27  CA        15.2750   27.7660   26.3640 C.3    61  VAL61       0.1561
     28  C         15.7380   27.2750   27.7160 C.2    61  VAL61       0.2260
     29  O         15.0510   26.5170   28.4340 O.2    61  VAL61      -0.2867
     30  CB        14.6120   29.1660   26.4300 C.3    61  VAL61       0.0252
     31  CG1       14.4270   29.7090   25.0180 C.3    61  VAL61       0.0019
     32  CG2       13.2900   29.1350   27.1750 C.3    61  VAL61       0.0019
     33  N         15.8010   28.7900   30.4050 N.3    63  GLN63      -0.1245
     34  CA        14.8180   29.1810   31.4080 C.3    63  GLN63       0.1566
     35  C         13.8240   28.0670   31.6880 C.2    63  GLN63       0.2260
     36  O         13.4050   27.8680   32.8280 O.2    63  GLN63      -0.2867
     37  CB        14.0840   30.3980   30.8780 C.3    63  GLN63       0.0367
     38  CG        12.7130   30.6290   31.4390 C.3    63  GLN63       0.0905
     39  CD        11.9900   31.6160   30.5660 C.2    63  GLN63       0.2608
     40  OE1       11.2850   31.2790   29.6180 O.2    63  GLN63      -0.2717
     41  NE2       12.0830   32.8670   30.9290 N.am   63  GLN63      -0.0878
     42  N          7.0180   41.2120   30.0110 N.3   245  TYR245     -0.1227
     43  CA         7.0580   39.7890   30.3200 C.3   245  TYR245      0.1736
     44  C          8.3600   39.3540   30.9950 C.2   245  TYR245      0.2595
     45  O          8.4160   38.2180   31.4790 O.2   245  TYR245     -0.2718
     46  CB         6.8050   38.9480   29.0450 C.3   245  TYR245      0.0548
     47  CG         5.3680   38.9700   28.5590 C.ar  245  TYR245     -0.0200
     48  CD1        4.7910   40.0900   27.9760 C.ar  245  TYR245     -0.0009
     49  CD2        4.5840   37.8210   28.6520 C.ar  245  TYR245     -0.0009
     50  CE1        3.4770   40.0860   27.5160 C.ar  245  TYR245      0.0417
     51  CE2        3.2700   37.7940   28.2060 C.ar  245  TYR245      0.0417
     52  CZ         2.7240   38.9250   27.6390 C.ar  245  TYR245      0.1957
     53  OH         1.4160   38.8720   27.2100 O.3   245  TYR245     -0.2866
     54  N          9.3680   40.2160   31.0640 N.am  246  ASP246     -0.1974
     55  CA        10.4960   39.9700   31.9600 C.3   246  ASP246      0.1709
     56  C         10.1350   40.3850   33.3940 C.2   246  ASP246      0.2293
     57  O         10.0920   39.5660   34.3110 O.2   246  ASP246     -0.2864
     58  CB        11.7710   40.6930   31.4960 C.3   246  ASP246      0.1436
     59  CG        12.3930   40.0020   30.2980 C.2   246  ASP246      0.3671
     60  OD1       11.9030   40.2490   29.1780 O.co2 246  ASP246     -0.2456
     61  OD2       13.3610   39.2560   30.5440 O.co2 246  ASP246     -0.2456
     62  N          8.2650   38.8330   36.6530 N.3   249  ARG249     -0.1245
     63  CA         8.7840   37.8780   37.6090 C.3   249  ARG249      0.1563
     64  C          9.3590   38.4880   38.8610 C.2   249  ARG249      0.2260
     65  O          9.5910   37.7730   39.8510 O.2   249  ARG249     -0.2867
     66  CB         9.8260   36.9820   36.9350 C.3   249  ARG249      0.0307
     67  CG         9.2250   36.1230   35.8600 C.3   249  ARG249      0.0489
     68  CD        10.2800   35.5350   34.9270 C.3   249  ARG249      0.2205
     69  NE        10.9340   36.6060   34.2090 N.pl3 249  ARG249     -0.0865
     70  CZ        11.8000   36.4110   33.2200 C.cat 249  ARG249      0.5346
     71  NH1       11.8980   35.2100   32.6920 N.pl3 249  ARG249      0.1354
     72  NH2       12.5570   37.4020   32.8090 N.pl3 249  ARG249      0.1354
     73  N         -0.8780   43.0350   30.6900 N.3   287  ASP287     -0.1239
     74  CA         0.4240   42.4990   30.3150 C.3   287  ASP287      0.1674
     75  C          1.3890   43.5400   29.8040 C.2   287  ASP287      0.2266
     76  O          2.2830   43.2510   29.0190 O.2   287  ASP287     -0.2867
     77  CB         0.3070   41.3640   29.2920 C.3   287  ASP287      0.1410
     78  CG        -0.1840   41.7950   27.9410 C.2   287  ASP287      0.3668
     79  OD1        0.1590   41.1230   26.9250 O.co2 287  ASP287     -0.2456
     80  OD2       -0.9710   42.7820   27.8700 O.co2 287  ASP287     -0.2456
     81  N         -3.9080   42.6940   27.7200 N.3   299  ASN299     -0.1240
     82  CA        -4.2620   41.2890   27.8400 C.3   299  ASN299      0.1653
     83  C         -4.1530   40.8420   29.3040 C.2   299  ASN299      0.2266
     84  O         -3.1720   41.1850   29.9530 O.2   299  ASN299     -0.2867
     85  CB        -3.3590   40.4130   26.9770 C.3   299  ASN299      0.1155
     86  CG        -3.3160   40.9300   25.5690 C.2   299  ASN299      0.2627
     87  OD1       -4.3870   41.0650   24.9060 O.2   299  ASN299     -0.2716
     88  ND2       -2.1560   41.2270   25.0810 N.am  299  ASN299     -0.0877
     89  N         -3.5980   37.6790   31.4770 N.3   301  ASN301     -0.1240
     90  CA        -3.0890   36.3480   31.2220 C.3   301  ASN301      0.1653
     91  C         -2.1900   35.8690   32.3640 C.2   301  ASN301      0.2266
     92  O         -1.8730   36.5700   33.3170 O.2   301  ASN301     -0.2867
     93  CB        -2.4050   36.2810   29.8540 C.3   301  ASN301      0.1155
     94  CG        -1.1880   37.1540   29.7430 C.2   301  ASN301      0.2627
     95  OD1       -0.4780   37.3680   30.7200 O.2   301  ASN301     -0.2716
     96  ND2       -0.9270   37.6530   28.5520 N.am  301  ASN301     -0.0877
     97  N          0.8870   35.1480   32.5010 N.3   303  SER303     -0.1217
     98  CA         2.2200   35.6920   32.7050 C.3   303  SER303      0.1889
     99  C          2.2750   36.7650   33.7680 C.2   303  SER303      0.2288
    100  O          3.3670   37.0650   34.2580 O.2   303  SER303     -0.2866
    101  CB         2.7750   36.2140   31.3770 C.3   303  SER303      0.2089
    102  OG         3.0330   35.1800   30.4550 O.3   303  SER303     -0.2183
    103  N         -3.7010   30.0640   30.3130 N.3   333  ASP333     -0.1239
    104  CA        -3.5680   30.4780   28.9250 C.3   333  ASP333      0.1674
    105  C         -3.8910   29.3270   27.9750 C.2   333  ASP333      0.2266
    106  O         -3.6820   28.1680   28.3020 O.2   333  ASP333     -0.2867
    107  CB        -2.1750   30.9920   28.6280 C.3   333  ASP333      0.1410
    108  CG        -1.7620   32.1950   29.4830 C.2   333  ASP333      0.3668
    109  OD1       -2.6530   32.9850   29.9180 O.co2 333  ASP333     -0.2456
    110  OD2       -0.5350   32.3440   29.6460 O.co2 333  ASP333     -0.2456
    111  N          0.0110   29.4970   23.1830 N.3   337  TYR337     -0.1241
    112  CA         0.9280   30.2580   24.0210 C.3   337  TYR337      0.1605
    113  C          1.0930   29.6150   25.3930 C.2   337  TYR337      0.2264
    114  O          1.3920   30.3020   26.3680 O.2   337  TYR337     -0.2867
    115  CB         0.4740   31.7070   24.1280 C.3   337  TYR337      0.0534
    116  CG         0.6030   32.5520   22.8530 C.ar  337  TYR337     -0.0201
    117  CD1       -0.4730   33.2200   22.2900 C.ar  337  TYR337     -0.0009
    118  CD2        1.8320   32.8000   22.2510 C.ar  337  TYR337     -0.0009
    119  CE1       -0.3550   34.0480   21.1740 C.ar  337  TYR337      0.0417
    120  CE2        1.9440   33.6060   21.1350 C.ar  337  TYR337      0.0417
    121  CZ         0.8620   34.2370   20.5670 C.ar  337  TYR337      0.1957
    122  OH         1.1400   34.9560   19.4260 O.3   337  TYR337     -0.2866
    123  N          3.3110   27.8300   26.9880 N.3   339  TYR339     -0.1227
    124  CA         4.5570   27.6420   27.7240 C.3   339  TYR339      0.1736
    125  C          4.7430   28.6450   28.8700 C.2   339  TYR339      0.2595
    126  O          4.8970   28.2380   30.0380 O.2   339  TYR339     -0.2718
    127  CB         5.7590   27.7010   26.7560 C.3   339  TYR339      0.0548
    128  CG         7.0740   27.9260   27.4590 C.ar  339  TYR339     -0.0200
    129  CD1        7.6720   26.9420   28.2640 C.ar  339  TYR339     -0.0009
    130  CD2        7.7020   29.1510   27.4070 C.ar  339  TYR339     -0.0009
    131  CE1        8.8340   27.2000   28.9670 C.ar  339  TYR339      0.0417
    132  CE2        8.8390   29.4260   28.1050 C.ar  339  TYR339      0.0417
    133  CZ         9.4410   28.4430   28.9040 C.ar  339  TYR339      0.1957
    134  OH        10.5730   28.6630   29.6130 O.3   339  TYR339     -0.2866
    135  N          4.8380   29.9340   28.5630 N.am  340  TYR340     -0.1962
    136  CA         5.4710   30.8400   29.5410 C.3   340  TYR340      0.1771
    137  C          4.5560   31.1550   30.7080 C.2   340  TYR340      0.2620
    138  O          4.8860   30.9460   31.8840 O.2   340  TYR340     -0.2715
    139  CB         5.9570   32.1030   28.8410 C.3   340  TYR340      0.0574
    140  CG         6.6730   33.0480   29.7560 C.ar  340  TYR340     -0.0198
    141  CD1        7.8870   32.6790   30.3530 C.ar  340  TYR340     -0.0009
    142  CD2        6.1780   34.3190   30.0130 C.ar  340  TYR340     -0.0009
    143  CE1        8.5660   33.5410   31.1740 C.ar  340  TYR340      0.0417
    144  CE2        6.8820   35.2100   30.8300 C.ar  340  TYR340      0.0417
    145  CZ         8.0590   34.8320   31.4000 C.ar  340  TYR340      0.1957
    146  OH         8.8010   35.6700   32.1900 O.3   340  TYR340     -0.2866
    147  N          3.3840   31.7050   30.4080 N.am  341  GLY341     -0.1954
    148  CA         2.4740   32.0920   31.4650 C.3   341  GLY341      0.1869
    149  C          2.0560   30.9020   32.3150 C.2   341  GLY341      0.2309
    150  O          2.0050   31.0190   33.5460 O.2   341  GLY341     -0.2863
@<TRIPOS>BOND
     1    23    22    2
     2    22    21    1
     3    21    20    1
     4    21    24    1
     5   122   121    1
     6    24    25    1
     7   121   120   ar
     8   121   119   ar
     9    15    14    2
    10   120   118   ar
    11   119   117   ar
    12    14    13    1
    13   118   116   ar
    14    11     9    1
    15   117   116   ar
    16    18    17   ar
    17    13    12    1
    18    13    16    1
    19   116   115    1
    20   111   112    1
    21    12     3   am
    22    16    17    1
    23    17    19   ar
    24     9     8    2
    25     9    10    1
    26     4     3    2
    27     3     2    1
    28     8     7    1
    29   112   115    1
    30   112   113    1
    31     5     2    1
    32     5     6    1
    33     2     1    1
    34    87    86    2
    35     7     6    1
    36    31    30    1
    37    88    86   am
    38   113   114    2
    39    86    85    1
    40    26    27    1
    41    27    30    1
    42    27    28    1
    43    30    32    1
    44   127   128    1
    45   127   124    1
    46    79    78   ar
    47    85    82    1
    48   123   124    1
    49    53    52    1
    50   130   128   ar
    51   130   132   ar
    52   128   129   ar
    53    50    52   ar
    54    50    48   ar
    55    52    51   ar
    56    28    29    2
    57    81    82    1
    58   124   125    1
    59    82    83    1
    60    80    78   ar
    61    78    77    1
    62   105   106    2
    63   105   104    1
    64    48    47   ar
    65   132   133   ar
    66    51    49   ar
    67   129   131   ar
    68    96    94   am
    69    47    49   ar
    70    47    46    1
    71   135   125   am
    72   135   136    1
    73   107   104    1
    74   107   108    1
    75   139   136    1
    76   139   140    1
    77   125   126    2
    78   133   131   ar
    79   133   134    1
    80   104   103    1
    81    76    75    2
    82    46    43    1
    83    60    59   ar
    84    77    74    1
    85    83    84    2
    86   108   110   ar
    87   108   109   ar
    88   136   137    1
    89    40    39    2
    90    94    93    1
    91    94    95    2
    92   140   142   ar
    93   140   141   ar
    94    75    74    1
    95    93    90    1
    96    42    43    1
    97   142   144   ar
    98    59    61   ar
    99    59    58    1
   100    74    73    1
   101    43    44    1
   102   141   143   ar
   103    33    34    1
   104   147   137   am
   105   147   148    1
   106   102   101    1
   107    39    41   am
   108    39    38    1
   109   137   138    2
   110   144   145   ar
   111    37    34    1
   112    37    38    1
   113    44    54   am
   114    44    45    2
   115    54    55    1
   116   143   145   ar
   117    90    89    1
   118    90    91    1
   119   101    98    1
   120   145   146    1
   121    34    35    1
   122   148   149    1
   123    58    55    1
   124    35    36    2
   125    55    56    1
   126   149   150    2
   127    91    92    2
   128    97    98    1
   129    71    70    1
   130    98    99    1
   131    72    70    1
   132    70    69    2
   133    56    57    2
   134    99   100    2
   135    69    68    1
   136    68    67    1
   137    67    66    1
   138    62    63    1
   139    66    63    1
   140    63    64    1
   141    64    65    2
