@<TRIPOS>MOLECULE
tmp/1kwjA01.pdb
 139 132 0 0 0
SMALL
GASTEIGER

@<TRIPOS>ATOM
      1  N          3.5080   -5.4360   -7.2890 N.3    13  VAL13      -0.1231
      2  CA         3.6500   -4.7530   -5.9980 C.3    13  VAL13       0.1692
      3  C          2.8520   -5.3660   -4.8330 C.2    13  VAL13       0.2593
      4  O          3.2610   -5.2260   -3.6840 O.2    13  VAL13      -0.2718
      5  CB         3.4360   -3.2420   -6.1950 C.3    13  VAL13       0.0266
      6  CG1        2.1270   -2.9400   -6.9160 C.3    13  VAL13       0.0020
      7  CG2        3.4450   -2.4870   -4.8660 C.3    13  VAL13       0.0020
      8  N          1.7380   -6.0570   -5.1040 N.am   14  THR14      -0.1939
      9  CA         1.0260   -6.8630   -4.1060 C.3    14  THR14       0.2028
     10  C          0.4510   -6.0440   -2.9380 C.2    14  THR14       0.2642
     11  O          1.0920   -5.7860   -1.9230 O.2    14  THR14      -0.2714
     12  CB         1.8740   -8.0770   -3.6880 C.3    14  THR14       0.1808
     13  OG1        1.9220   -8.9630   -4.7910 O.3    14  THR14      -0.2208
     14  CG2        1.2790   -8.8550   -2.5150 C.3    14  THR14       0.0379
     15  N         -0.8130   -5.6520   -3.0950 N.am   15  PHE15      -0.1959
     16  CA        -1.6640   -5.1010   -2.0490 C.3    15  PHE15       0.1771
     17  C         -2.2580   -6.2760   -1.2550 C.2    15  PHE15       0.2619
     18  O         -3.2360   -6.8800   -1.7100 O.2    15  PHE15      -0.2715
     19  CB        -2.8200   -4.3050   -2.6920 C.3    15  PHE15       0.0574
     20  CG        -2.5350   -3.0360   -3.4750 C.ar   15  PHE15      -0.0200
     21  CD1       -1.2640   -2.7480   -4.0100 C.ar   15  PHE15      -0.0042
     22  CD2       -3.6340   -2.2340   -3.8400 C.ar   15  PHE15      -0.0042
     23  CE1       -1.1090   -1.7070   -4.9380 C.ar   15  PHE15      -0.0003
     24  CE2       -3.4690   -1.1630   -4.7330 C.ar   15  PHE15      -0.0003
     25  CZ        -2.2080   -0.9110   -5.2950 C.ar   15  PHE15      -0.0000
     26  N         -1.7240   -6.6060   -0.0720 N.am   16  ASP16      -0.1971
     27  CA        -2.2650   -7.6960    0.7320 C.3    16  ASP16       0.1709
     28  C         -3.4870   -7.1700    1.4810 C.2    16  ASP16       0.2293
     29  O         -3.4760   -6.9950    2.6970 O.2    16  ASP16      -0.2864
     30  CB        -1.2100   -8.3090    1.6660 C.3    16  ASP16       0.1436
     31  CG         0.2060   -8.0940    1.1970 C.2    16  ASP16       0.3671
     32  OD1        0.6170   -6.9230    1.3370 O.co2  16  ASP16      -0.2456
     33  OD2        0.8220   -9.0750    0.7370 O.co2  16  ASP16      -0.2456
     34  N         -2.3410   -7.2890    5.2460 N.3    20  HIS20      -0.1241
     35  CA        -2.2110   -5.9880    5.8840 C.3    20  HIS20       0.1621
     36  C         -3.3550   -5.7850    6.8970 C.2    20  HIS20       0.2264
     37  O         -3.0990   -5.5260    8.0680 O.2    20  HIS20      -0.2867
     38  CB        -2.1460   -4.8570    4.8410 C.3    20  HIS20       0.0745
     39  CG        -0.7730   -4.5370    4.2840 C.ar   20  HIS20       0.0817
     40  ND1       -0.0620   -5.2820    3.3710 N.ar   20  HIS20      -0.2268
     41  CD2       -0.0640   -3.3740    4.4850 C.ar   20  HIS20       0.1154
     42  CE1        1.0430   -4.5930    3.0620 C.ar   20  HIS20       0.1986
     43  NE2        1.1020   -3.4160    3.7030 N.ar   20  HIS20      -0.2212
     44  N         -3.4130   -7.4890   10.4060 N.3    23  LYS23      -0.1231
     45  CA        -2.7600   -6.6380   11.4100 C.3    23  LYS23       0.1693
     46  C         -3.5140   -5.3110   11.6530 C.2    23  LYS23       0.2591
     47  O         -3.7410   -4.9160   12.7930 O.2    23  LYS23      -0.2718
     48  CB        -1.3150   -6.3460   10.9600 C.3    23  LYS23       0.0285
     49  CG        -0.3240   -7.4020   11.4660 C.3    23  LYS23       0.0035
     50  CD         1.0740   -7.1490   10.8780 C.3    23  LYS23       0.0206
     51  CE         2.1270   -8.0080   11.5930 C.3    23  LYS23       0.1093
     52  NZ         3.4180   -8.0110   10.8710 N.3    23  LYS23      -0.1314
     53  N         -3.8260   -4.5840   10.5780 N.am   24  LEU24      -0.1980
     54  CA        -4.1580   -3.1570   10.5690 C.3    24  LEU24       0.1596
     55  C         -5.6650   -2.8320   10.6670 C.2    24  LEU24       0.2287
     56  O         -6.0360   -1.6790   10.8650 O.2    24  LEU24      -0.2864
     57  CB        -3.5430   -2.5520    9.3010 C.3    24  LEU24       0.0297
     58  CG        -2.0170   -2.7000    9.1680 C.3    24  LEU24       0.0022
     59  CD1       -1.5980   -2.0760    7.8350 C.3    24  LEU24       0.0001
     60  CD2       -1.2670   -1.9970   10.3050 C.3    24  LEU24       0.0001
     61  N         -7.0100    1.5890    9.3370 N.3    28  ALA28      -0.1231
     62  CA        -5.6430    1.9510    8.9790 C.3    28  ALA28       0.1694
     63  C         -5.4550    2.5020    7.5520 C.2    28  ALA28       0.2592
     64  O         -4.5700    3.3250    7.3270 O.2    28  ALA28      -0.2718
     65  CB        -4.8080    0.6930    9.1530 C.3    28  ALA28       0.0304
     66  N         -6.2520    2.0260    6.5890 N.am   29  CYS29      -0.1970
     67  CA        -6.2150    2.4470    5.1880 C.3    29  CYS29       0.1712
     68  C         -7.5110    3.1540    4.7510 C.2    29  CYS29       0.2296
     69  O         -7.6550    3.5140    3.5850 O.2    29  CYS29      -0.2864
     70  CB        -6.0130    1.2260    4.3320 C.3    29  CYS29       0.0983
     71  SG        -4.3640    0.4590    4.5160 S.3    29  CYS29      -0.0798
     72  N         -5.0710    4.4860   -6.4550 N.3    39  ILE39      -0.1245
     73  CA        -3.6470    4.2140   -6.3660 C.3    39  ILE39       0.1561
     74  C         -2.9930    4.2940   -7.7480 C.2    39  ILE39       0.2260
     75  O         -3.5160    3.7730   -8.7300 O.2    39  ILE39      -0.2867
     76  CB        -3.4010    2.8580   -5.6930 C.3    39  ILE39       0.0252
     77  CG1       -4.0930    2.7560   -4.3240 C.3    39  ILE39       0.0019
     78  CG2       -1.8940    2.6390   -5.5370 C.3    39  ILE39       0.0019
     79  CD1       -3.6050    3.7680   -3.2790 C.3    39  ILE39       0.0001
     80  N          0.9040    6.3120   -4.5850 N.3    44  ALA44      -0.1245
     81  CA         1.7120    5.2580   -3.9740 C.3    44  ALA44       0.1562
     82  C          3.1350    5.6870   -3.6190 C.2    44  ALA44       0.2260
     83  O          3.7970    5.0330   -2.8150 O.2    44  ALA44      -0.2867
     84  CB         1.8080    4.0860   -4.9480 C.3    44  ALA44       0.0290
     85  N          0.4750    4.3570    1.1620 N.3    49  CYS49      -0.1235
     86  CA         1.4800    3.3190    1.4220 C.3    49  CYS49       0.1677
     87  C          2.7520    3.8970    2.0670 C.2    49  CYS49       0.2270
     88  O          3.1030    3.5500    3.1990 O.2    49  CYS49      -0.2867
     89  CB         1.8200    2.5020    0.1860 C.3    49  CYS49       0.0956
     90  SG         0.4550    2.1150   -0.9710 S.3    49  CYS49      -0.0801
     91  N          2.8890    5.4430    5.9250 N.3    52  CYS52      -0.1221
     92  CA         2.8240    4.3510    6.8960 C.3    52  CYS52       0.1808
     93  C          4.1560    3.5970    6.9500 C.2    52  CYS52       0.2601
     94  O          4.7670    3.4780    8.0090 O.2    52  CYS52      -0.2717
     95  CB         1.6760    3.4370    6.5700 C.3    52  CYS52       0.0970
     96  SG         1.5180    2.1860    7.8750 S.3    52  CYS52      -0.0800
     97  N          4.6480    3.1440    5.7930 N.am   53  HIS53      -0.1975
     98  CA         5.9540    2.5030    5.6950 C.3    53  HIS53       0.1656
     99  C          7.0790    3.3440    6.3530 C.2    53  HIS53       0.2291
    100  O          7.8060    2.8360    7.2030 O.2    53  HIS53      -0.2864
    101  CB         6.2110    2.1840    4.2140 C.3    53  HIS53       0.0771
    102  CG         5.4950    0.9680    3.6880 C.ar   53  HIS53       0.0820
    103  ND1        5.8500    0.2870    2.5560 N.ar   53  HIS53      -0.2267
    104  CD2        4.3850    0.3520    4.1980 C.ar   53  HIS53       0.1154
    105  CE1        4.9710   -0.7190    2.3920 C.ar   53  HIS53       0.1986
    106  NE2        4.0510   -0.7360    3.3700 N.ar   53  HIS53      -0.2212
    107  N          7.2350    3.4330   10.1920 N.3    56  ASN56      -0.1225
    108  CA         7.7630    2.2380   10.8320 C.3    56  ASN56       0.1785
    109  C          9.0840    1.8510   10.1490 C.2    56  ASN56       0.2597
    110  O          9.6230    2.5790    9.3200 O.2    56  ASN56      -0.2718
    111  CB         6.7250    1.1040   10.7260 C.3    56  ASN56       0.1169
    112  CG         5.3390    1.4070   11.2980 C.2    56  ASN56       0.2627
    113  OD1        4.3620    0.7810   10.9080 O.2    56  ASN56      -0.2716
    114  ND2        5.2110    2.3240   12.2470 N.am   56  ASN56      -0.0877
    115  N          9.5930    0.6580   10.4440 N.am   57  ASN57      -0.1974
    116  CA        10.7570    0.1020    9.7560 C.3    57  ASN57       0.1688
    117  C         10.3450   -0.4910    8.3980 C.2    57  ASN57       0.2292
    118  O         10.6140   -1.6560    8.1140 O.2    57  ASN57      -0.2864
    119  CB        11.4340   -0.9330   10.6650 C.3    57  ASN57       0.1181
    120  CG        11.7920   -0.3300   12.0180 C.2    57  ASN57       0.2629
    121  OD1       12.7910    0.3610   12.1590 O.2    57  ASN57      -0.2716
    122  ND2       10.9750   -0.5690   13.0370 N.am   57  ASN57      -0.0877
    123  N          9.9020   -1.2400    4.2000 N.3    59  PRO59      -0.2116
    124  CA        10.8350   -1.5370    3.1230 C.3    59  PRO59       0.1372
    125  C         11.0440   -0.2930    2.2410 C.2    59  PRO59       0.2244
    126  O         10.5550   -0.2030    1.1150 O.2    59  PRO59      -0.2868
    127  CB        10.2050   -2.7260    2.3940 C.3    59  PRO59       0.0268
    128  CG         8.7070   -2.4770    2.5590 C.3    59  PRO59       0.0207
    129  CD         8.6270   -1.9080    3.9760 C.3    59  PRO59       0.0892
    130  N         11.8040   -2.8650   -2.4880 N.3    64  GLY64      -0.1210
    131  CA        11.0900   -3.1410   -1.2520 C.3    64  GLY64       0.1956
    132  C          9.5790   -3.2830   -1.4690 C.2    64  GLY64       0.2612
    133  O          8.9100   -3.9620   -0.6940 O.2    64  GLY64      -0.2717
    134  N          9.0460   -2.6530   -2.5240 N.am   65  CYS65      -0.1970
    135  CA         7.6570   -2.8290   -2.9540 C.3    65  CYS65       0.1712
    136  C          7.5780   -3.6560   -4.2420 C.2    65  CYS65       0.2296
    137  O          6.8000   -4.5980   -4.3320 O.2    65  CYS65      -0.2864
    138  CB         7.0070   -1.4870   -3.1520 C.3    65  CYS65       0.0983
    139  SG         6.6030   -0.6860   -1.5670 S.3    65  CYS65      -0.0798
@<TRIPOS>BOND
     1    75    74    2
     2    74    73    1
     3     1     2    1
     4     6     5    1
     5    72    73    1
     6    73    76    1
     7     5     2    1
     8     5     7    1
     9     2     3    1
    10    76    78    1
    11    76    77    1
    12    25    23   ar
    13    25    24   ar
    14     8     3   am
    15     8     9    1
    16    84    81    1
    17    23    21   ar
    18     3     4    2
    19    13    12    1
    20    24    22   ar
    21    80    81    1
    22   137   136    2
    23    77    79    1
    24   136   135    1
    25     9    12    1
    26     9    10    1
    27    21    20   ar
    28    81    82    1
    29    22    20   ar
    30    12    14    1
    31    82    83    2
    32    20    19    1
    33   138   135    1
    34   138   139    1
    35    15    10   am
    36    15    16    1
    37   135   134    1
    38    10    11    2
    39    19    16    1
    40   134   132   am
    41   130   131    1
    42    16    17    1
    43    18    17    2
    44   132   131    1
    45   132   133    2
    46    17    26   am
    47    90    89    1
    48    26    27    1
    49    89    86    1
    50    27    28    1
    51    27    30    1
    52    33    31   ar
    53   126   125    2
    54    85    86    1
    55    31    32   ar
    56    31    30    1
    57    86    87    1
    58    28    29    2
    59    87    88    2
    60   125   124    1
    61   105   103   ar
    62   105   106   ar
    63   127   128    1
    64   127   124    1
    65   103   102   ar
    66   128   129    1
    67    42    40   ar
    68    42    43   ar
    69   124   123    1
    70   106   104   ar
    71    40    39   ar
    72    69    68    2
    73   102   104   ar
    74   102   101    1
    75    43    41   ar
    76   129   123    1
    77   101    98    1
    78    39    41   ar
    79    39    38    1
    80    70    71    1
    81    70    67    1
    82    68    67    1
    83    38    35    1
    84    67    66    1
    85    34    35    1
    86    98    97    1
    87    98    99    1
    88    97    93   am
    89    35    36    1
    90    91    92    1
    91    99   100    2
    92    95    92    1
    93    95    96    1
    94    66    63   am
    95    92    93    1
    96    36    37    2
    97    93    94    2
    98    64    63    2
    99    63    62    1
   100    59    58    1
   101   118   117    2
   102   117   116    1
   103    62    65    1
   104    62    61    1
   105    58    57    1
   106    58    60    1
   107    57    54    1
   108   110   109    2
   109   116   115    1
   110   116   119    1
   111   109   115   am
   112   109   108    1
   113   107   108    1
   114    44    45    1
   115    54    53    1
   116    54    55    1
   117    53    46   am
   118   119   120    1
   119    55    56    2
   120   111   108    1
   121   111   112    1
   122    52    51    1
   123    50    49    1
   124    50    51    1
   125   113   112    2
   126    48    45    1
   127    48    49    1
   128   112   114   am
   129    45    46    1
   130    46    47    2
   131   120   121    2
   132   120   122   am
