@<TRIPOS>MOLECULE
tmp/1kwkA00.pdb
 131 127 0 0 0
SMALL
GASTEIGER

@<TRIPOS>ATOM
      1  N         32.9310   16.7770   23.6930 N.3     7  TYR7       -0.1241
      2  CA        32.2130   17.0440   22.4580 C.3     7  TYR7        0.1605
      3  C         32.5880   18.3890   21.8540 C.2     7  TYR7        0.2264
      4  O         31.8790   19.3880   22.0190 O.2     7  TYR7       -0.2867
      5  CB        30.7080   16.9430   22.7010 C.3     7  TYR7        0.0534
      6  CG        30.3360   15.5600   23.1690 C.ar    7  TYR7       -0.0201
      7  CD1       30.3810   15.2230   24.5250 C.ar    7  TYR7       -0.0009
      8  CD2       30.0660   14.5490   22.2460 C.ar    7  TYR7       -0.0009
      9  CE1       30.1760   13.9090   24.9460 C.ar    7  TYR7        0.0417
     10  CE2       29.8610   13.2340   22.6540 C.ar    7  TYR7        0.0417
     11  CZ        29.9210   12.9200   24.0020 C.ar    7  TYR7        0.1957
     12  OH        29.7480   11.6150   24.3970 O.3     7  TYR7       -0.2866
     13  N         31.7920    9.9250   18.5890 N.3    35  GLU35      -0.1231
     14  CA        30.7830    8.8860   18.3700 C.3    35  GLU35       0.1699
     15  C         29.4380    9.3830   17.8290 C.2    35  GLU35       0.2592
     16  O         28.6800    8.6020   17.2510 O.2    35  GLU35      -0.2718
     17  CB        30.5410    8.0790   19.6500 C.3    35  GLU35       0.0402
     18  CG        29.6110    8.7580   20.6250 C.3    35  GLU35       0.1161
     19  CD        30.3310    9.6630   21.5850 C.2    35  GLU35       0.3649
     20  OE1       31.3870   10.2300   21.2110 O.co2  35  GLU35      -0.2457
     21  OE2       29.8260    9.8140   22.7180 O.co2  35  GLU35      -0.2457
     22  N         29.1370   10.6660   18.0150 N.am   36  PHE36      -0.1976
     23  CA        27.8730   11.2280   17.5320 C.3    36  PHE36       0.1639
     24  C         28.1230   12.3320   16.5110 C.2    36  PHE36       0.2290
     25  O         27.2860   13.2140   16.3430 O.2    36  PHE36      -0.2864
     26  CB        27.0670   11.8450   18.6870 C.3    36  PHE36       0.0560
     27  CG        26.6870   10.8760   19.7720 C.ar   36  PHE36      -0.0200
     28  CD1       26.0230    9.6890   19.4690 C.ar   36  PHE36      -0.0042
     29  CD2       26.9620   11.1690   21.1040 C.ar   36  PHE36      -0.0042
     30  CE1       25.6360    8.8020   20.4810 C.ar   36  PHE36      -0.0003
     31  CE2       26.5810   10.2930   22.1250 C.ar   36  PHE36      -0.0003
     32  CZ        25.9130    9.1030   21.8110 C.ar   36  PHE36      -0.0000
     33  N         18.3820    8.8910   18.8370 N.3   102  ARG102     -0.1245
     34  CA        19.6070    8.1780   18.4890 C.3   102  ARG102      0.1563
     35  C         19.3310    6.6810   18.3490 C.2   102  ARG102      0.2260
     36  O         18.2270    6.2140   18.6330 O.2   102  ARG102     -0.2867
     37  CB        20.6840    8.4010   19.5560 C.3   102  ARG102      0.0307
     38  CG        20.3530    7.8350   20.9280 C.3   102  ARG102      0.0489
     39  CD        21.5320    8.0150   21.8630 C.3   102  ARG102      0.2205
     40  NE        21.1830    7.7260   23.2470 N.pl3 102  ARG102     -0.0865
     41  CZ        21.9820    7.9610   24.2830 C.cat 102  ARG102      0.5346
     42  NH1       23.1860    8.4890   24.0900 N.pl3 102  ARG102      0.1354
     43  NH2       21.5690    7.6840   25.5150 N.pl3 102  ARG102      0.1354
     44  N         28.2780    3.1110   19.9470 N.3   140  ASN140     -0.1225
     45  CA        28.0300    3.6460   21.2880 C.3   140  ASN140      0.1785
     46  C         26.8640    2.9110   21.9420 C.2   140  ASN140      0.2597
     47  O         25.7060    3.0820   21.5480 O.2   140  ASN140     -0.2718
     48  CB        27.7180    5.1480   21.2550 C.3   140  ASN140      0.1169
     49  CG        27.6310    5.7560   22.6570 C.2   140  ASN140      0.2627
     50  OD1       28.6520    6.0140   23.2980 O.2   140  ASN140     -0.2716
     51  ND2       26.4100    5.9630   23.1430 N.am  140  ASN140     -0.0877
     52  N         27.1880    2.1000   22.9430 N.am  141  GLU141     -0.1979
     53  CA        26.2020    1.3130   23.6810 C.3   141  GLU141      0.1602
     54  C         25.2160    0.5520   22.8020 C.2   141  GLU141      0.2287
     55  O         24.0490    0.9390   22.6880 O.2   141  GLU141     -0.2864
     56  CB        25.4060    2.1950   24.6500 C.3   141  GLU141      0.0415
     57  CG        26.2210    2.8250   25.7670 C.3   141  GLU141      0.1163
     58  CD        25.3460    3.3050   26.9170 C.2   141  GLU141      0.3649
     59  OE1       24.2400    3.8210   26.6550 O.co2 141  GLU141     -0.2457
     60  OE2       25.7650    3.1730   28.0850 O.co2 141  GLU141     -0.2457
     61  N         21.0850    0.1380   23.5030 N.3   144  CYS144     -0.1235
     62  CA        20.4250    1.1440   24.3270 C.3   144  CYS144      0.1677
     63  C         19.0650    1.4720   23.7150 C.2   144  CYS144      0.2270
     64  O         18.9230    1.5360   22.4890 O.2   144  CYS144     -0.2867
     65  CB        21.2740    2.4120   24.4330 C.3   144  CYS144      0.0956
     66  SG        20.6230    3.6310   25.6140 S.3   144  CYS144     -0.0801
     67  N         26.3370    4.6580   35.9080 N.3   266  TYR266     -0.1241
     68  CA        25.4380    5.7190   36.3550 C.3   266  TYR266      0.1605
     69  C         24.6610    5.1340   37.5400 C.2   266  TYR266      0.2264
     70  O         23.4680    4.8380   37.4360 O.2   266  TYR266     -0.2867
     71  CB        24.4890    6.1160   35.2160 C.3   266  TYR266      0.0534
     72  CG        25.2070    6.7560   34.0480 C.ar  266  TYR266     -0.0201
     73  CD1       25.6710    8.0720   34.1270 C.ar  266  TYR266     -0.0009
     74  CD2       25.4690    6.0340   32.8820 C.ar  266  TYR266     -0.0009
     75  CE1       26.3800    8.6520   33.0770 C.ar  266  TYR266      0.0417
     76  CE2       26.1810    6.6050   31.8220 C.ar  266  TYR266      0.0417
     77  CZ        26.6330    7.9150   31.9320 C.ar  266  TYR266      0.1957
     78  OH        27.3490    8.4820   30.9040 O.3   266  TYR266     -0.2866
     79  N         32.4470    5.7200   30.7830 N.3   312  GLU312     -0.1245
     80  CA        31.5660    6.8090   31.1930 C.3   312  GLU312      0.1567
     81  C         31.2530    6.6800   32.6750 C.2   312  GLU312      0.2260
     82  O         30.7310    5.6610   33.1190 O.2   312  GLU312     -0.2867
     83  CB        30.2660    6.7820   30.3870 C.3   312  GLU312      0.0388
     84  CG        30.4250    7.1440   28.9110 C.3   312  GLU312      0.1160
     85  CD        29.1360    6.9460   28.1330 C.2   312  GLU312      0.3649
     86  OE1       28.0620    7.1370   28.7390 O.co2 312  GLU312     -0.2457
     87  OE2       29.1880    6.6170   26.9270 O.co2 312  GLU312     -0.2457
     88  N         17.8120   10.9680   32.6030 N.3   320  TRP320     -0.1241
     89  CA        16.8900    9.9170   32.1840 C.3   320  TRP320      0.1605
     90  C         16.1170    9.0220   33.1510 C.2   320  TRP320      0.2264
     91  O         15.2860    8.2300   32.7080 O.2   320  TRP320     -0.2867
     92  CB        17.6230    9.0270   31.1830 C.3   320  TRP320      0.0550
     93  CG        18.9810    8.6020   31.6660 C.ar  320  TRP320      0.0003
     94  CD1       20.1820    9.1850   31.3650 C.ar  320  TRP320      0.0946
     95  CD2       19.2770    7.5010   32.5370 C.ar  320  TRP320      0.0152
     96  NE1       21.2060    8.5120   31.9920 N.ar  320  TRP320     -0.2442
     97  CE2       20.6800    7.4760   32.7180 C.ar  320  TRP320      0.0810
     98  CE3       18.4920    6.5330   33.1820 C.ar  320  TRP320      0.0012
     99  CZ2       21.3160    6.5180   33.5160 C.ar  320  TRP320      0.0191
    100  CZ3       19.1260    5.5760   33.9760 C.ar  320  TRP320      0.0001
    101  CH2       20.5250    5.5790   34.1350 C.ar  320  TRP320      0.0015
    102  N         31.6410   11.2160   31.9500 N.3   350  PHE350     -0.1241
    103  CA        30.7310   11.7270   30.9380 C.3   350  PHE350      0.1605
    104  C         29.9790   12.8000   31.7270 C.2   350  PHE350      0.2264
    105  O         29.2170   12.4600   32.6310 O.2   350  PHE350     -0.2867
    106  CB        29.7370   10.6570   30.4700 C.3   350  PHE350      0.0534
    107  CG        28.7820   11.1560   29.4170 C.ar  350  PHE350     -0.0203
    108  CD1       29.0930   11.0460   28.0640 C.ar  350  PHE350     -0.0042
    109  CD2       27.6120   11.8200   29.7810 C.ar  350  PHE350     -0.0042
    110  CE1       28.2590   11.5950   27.0920 C.ar  350  PHE350     -0.0003
    111  CE2       26.7710   12.3720   28.8150 C.ar  350  PHE350     -0.0003
    112  CZ        27.0980   12.2590   27.4680 C.ar  350  PHE350     -0.0000
    113  N         19.8090   15.9910   26.5190 N.3   360  GLU360     -0.1245
    114  CA        20.5110   15.8400   27.7850 C.3   360  GLU360      0.1567
    115  C         21.0140   17.1350   28.3980 C.2   360  GLU360      0.2260
    116  O         22.0530   17.1580   29.0630 O.2   360  GLU360     -0.2867
    117  CB        21.6600   14.8420   27.6110 C.3   360  GLU360      0.0388
    118  CG        21.1560   13.4510   27.2490 C.3   360  GLU360      0.1160
    119  CD        22.2600   12.4380   27.0540 C.2   360  GLU360      0.3649
    120  OE1       21.9410   11.2310   27.0700 O.co2 360  GLU360     -0.2457
    121  OE2       23.4330   12.8370   26.8750 O.co2 360  GLU360     -0.2457
    122  N         21.6810   16.8100   31.9460 N.3   363  HIS363     -0.1241
    123  CA        22.7110   15.8450   32.3560 C.3   363  HIS363      0.1621
    124  C         23.9740   16.6230   32.7140 C.2   363  HIS363      0.2264
    125  O         24.6000   17.2440   31.8510 O.2   363  HIS363     -0.2867
    126  CB        23.0140   14.8540   31.2270 C.3   363  HIS363      0.0745
    127  CG        23.8790   13.7040   31.6450 C.ar  363  HIS363      0.0817
    128  ND1       25.1300   13.8720   32.2050 N.ar  363  HIS363     -0.2268
    129  CD2       23.6780   12.3670   31.5710 C.ar  363  HIS363      0.1154
    130  CE1       25.6620   12.6890   32.4550 C.ar  363  HIS363      0.1986
    131  NE2       24.8020   11.7580   32.0790 N.ar  363  HIS363     -0.2212
@<TRIPOS>BOND
     1    25    24    2
     2    24    23    1
     3    16    15    2
     4    23    22    1
     5    23    26    1
     6    15    22   am
     7    15    14    1
     8    35    34    1
     9    35    36    2
    10    14    13    1
    11    14    17    1
    12    34    33    1
    13    34    37    1
    14    26    27    1
    15    28    27   ar
    16    28    30   ar
    17    37    38    1
    18    17    18    1
    19    27    29   ar
    20    44    45    1
    21    30    32   ar
    22    18    19    1
    23    38    39    1
    24    29    31   ar
    25    20    19   ar
    26    48    45    1
    27    48    49    1
    28    45    46    1
    29    47    46    2
    30    19    21   ar
    31    32    31   ar
    32     3     4    2
    33     3     2    1
    34    39    40    1
    35    46    52   am
    36     8    10   ar
    37     8     6   ar
    38     2     5    1
    39     2     1    1
    40    64    63    2
    41    10    11   ar
    42    49    51   am
    43    49    50    2
    44    55    54    2
    45     5     6    1
    46    54    53    1
    47    52    53    1
    48     6     7   ar
    49    40    41    2
    50    61    62    1
    51    53    56    1
    52    63    62    1
    53    11    12    1
    54    11     9   ar
    55    42    41    1
    56    41    43    1
    57    62    65    1
    58    65    66    1
    59     7     9   ar
    60    56    57    1
    61    57    58    1
    62   113   114    1
    63    59    58   ar
    64   121   119   ar
    65    58    60   ar
    66    87    85   ar
    67   119   120   ar
    68   119   118    1
    69   110   112   ar
    70   110   108   ar
    71   118   117    1
    72   112   111   ar
    73   117   114    1
    74   114   115    1
    75   108   107   ar
    76    85    86   ar
    77    85    84    1
    78   115   116    2
    79   111   109   ar
    80    84    83    1
    81   107   109   ar
    82   107   106    1
    83    83    80    1
    84   106   103    1
    85    79    80    1
    86    78    77    1
    87   103   104    1
    88   103   102    1
    89    92    93    1
    90    92    89    1
    91    80    81    1
    92   126   127    1
    93   126   123    1
    94    94    93   ar
    95    94    96   ar
    96   129   127   ar
    97   129   131   ar
    98   127   128   ar
    99    93    95   ar
   100   104   105    2
   101    76    77   ar
   102    76    74   ar
   103   125   124    2
   104    77    75   ar
   105   122   123    1
   106    96    97   ar
   107   131   130   ar
   108    89    88    1
   109    89    90    1
   110   128   130   ar
   111   123   124    1
   112    95    97   ar
   113    95    98   ar
   114    81    82    2
   115    91    90    2
   116    97    99   ar
   117    74    72   ar
   118    75    73   ar
   119    98   100   ar
   120    99   101   ar
   121   100   101   ar
   122    72    73   ar
   123    72    71    1
   124    71    68    1
   125    67    68    1
   126    68    69    1
   127    70    69    2
