@<TRIPOS>MOLECULE
tmp/1kwoA00.pdb
 239 234 0 0 0
SMALL
GASTEIGER

@<TRIPOS>ATOM
      1  N         15.3330   20.0410  -15.6240 N.3   105  ILE105     -0.1231
      2  CA        15.5780   18.8010  -16.2990 C.3   105  ILE105      0.1692
      3  C         16.7930   17.9830  -15.8710 C.2   105  ILE105      0.2592
      4  O         17.3170   17.1830  -16.6420 O.2   105  ILE105     -0.2718
      5  CB        15.5810   19.0020  -17.8540 C.3   105  ILE105      0.0266
      6  CG1       15.0030   17.7410  -18.4770 C.3   105  ILE105      0.0019
      7  CG2       16.9880   19.2830  -18.4420 C.3   105  ILE105      0.0020
      8  CD1       14.7760   16.6130  -17.4440 C.3   105  ILE105      0.0001
      9  N         17.2200   18.1370  -14.6410 N.am  106  TYR106     -0.1976
     10  CA        18.3650   17.3470  -14.1910 C.3   106  TYR106      0.1639
     11  C         18.3870   17.3260  -12.6680 C.2   106  TYR106      0.2290
     12  O         18.1440   18.3330  -12.0050 O.2   106  TYR106     -0.2864
     13  CB        19.6790   17.8790  -14.7910 C.3   106  TYR106      0.0560
     14  CG        19.9980   17.4160  -16.2230 C.ar  106  TYR106     -0.0198
     15  CD1       20.3260   16.0820  -16.4990 C.ar  106  TYR106     -0.0009
     16  CD2       19.8840   18.2870  -17.3120 C.ar  106  TYR106     -0.0009
     17  CE1       20.5050   15.6350  -17.8150 C.ar  106  TYR106      0.0417
     18  CE2       20.0600   17.8500  -18.6220 C.ar  106  TYR106      0.0417
     19  CZ        20.3580   16.5320  -18.8710 C.ar  106  TYR106      0.1957
     20  OH        20.4360   16.1370  -20.1810 O.3   106  TYR106     -0.2866
     21  N         11.6520   14.1670  -19.9790 N.3   117  ASN117     -0.1226
     22  CA        11.5810   14.6840  -21.3280 C.3   117  ASN117      0.1770
     23  C         10.9440   16.0860  -21.3150 C.2   117  ASN117      0.2439
     24  O          9.8560   16.2900  -20.7770 O.2   117  ASN117     -0.2733
     25  CB        10.7470   13.7450  -22.1890 C.3   117  ASN117      0.1168
     26  CG        10.8380   14.0750  -23.6530 C.2   117  ASN117      0.2627
     27  OD1       10.8460   15.2470  -24.0310 O.2   117  ASN117     -0.2716
     28  ND2       10.8910   13.0510  -24.4900 N.am  117  ASN117     -0.0877
     29  N         11.6230   17.0660  -21.9090 N.am  118  PRO118     -0.2718
     30  CA        11.1490   18.4530  -21.9790 C.3   118  PRO118      0.1535
     31  C         10.2820   18.7350  -23.1760 C.2   118  PRO118      0.2599
     32  O          9.3370   19.5050  -23.0930 O.2   118  PRO118     -0.2715
     33  CB        12.4400   19.2430  -22.0670 C.3   118  PRO118      0.0310
     34  CG        13.2290   18.3660  -22.9910 C.3   118  PRO118      0.0237
     35  CD        13.0010   16.9840  -22.4250 C.3   118  PRO118      0.0939
     36  N         10.6100   18.1320  -24.3060 N.am  119  TYR119     -0.1960
     37  CA         9.8390   18.3530  -25.5140 C.3   119  TYR119      0.1771
     38  C          9.9670   19.8190  -25.9480 C.2   119  TYR119      0.2619
     39  O          8.9690   20.4960  -26.1960 O.2   119  TYR119     -0.2715
     40  CB         8.3610   17.9850  -25.2780 C.3   119  TYR119      0.0574
     41  CG         8.0790   16.4900  -25.3440 C.ar  119  TYR119     -0.0198
     42  CD1        7.1040   15.8970  -24.5290 C.ar  119  TYR119     -0.0009
     43  CD2        8.8010   15.6670  -26.1960 C.ar  119  TYR119     -0.0009
     44  CE1        6.8850   14.5140  -24.5640 C.ar  119  TYR119      0.0417
     45  CE2        8.5800   14.2960  -26.2380 C.ar  119  TYR119      0.0417
     46  CZ         7.6360   13.7190  -25.4260 C.ar  119  TYR119      0.1957
     47  OH         7.4810   12.3520  -25.4640 O.3   119  TYR119     -0.2866
     48  N         11.2040   20.2950  -26.0380 N.am  120  ARG120     -0.1963
     49  CA        11.4870   21.6680  -26.4540 C.3   120  ARG120      0.1729
     50  C         12.9830   21.9440  -26.4720 C.2   120  ARG120      0.2616
     51  O         13.5170   22.4900  -25.5090 O.2   120  ARG120     -0.2715
     52  CB        10.8140   22.6490  -25.5070 C.3   120  ARG120      0.0348
     53  CG        11.1120   24.0720  -25.8590 C.3   120  ARG120      0.0492
     54  CD        10.7230   24.9980  -24.7410 C.3   120  ARG120      0.2205
     55  NE        10.8750   26.3840  -25.1590 N.pl3 120  ARG120     -0.0865
     56  CZ        12.0320   26.9330  -25.5180 C.cat 120  ARG120      0.5346
     57  NH1       13.1480   26.2140  -25.5030 N.pl3 120  ARG120      0.1354
     58  NH2       12.0670   28.1960  -25.9150 N.pl3 120  ARG120      0.1354
     59  N         13.6520   21.5770  -27.5600 N.am  121  ARG121     -0.1963
     60  CA        15.1040   21.7810  -27.6820 C.3   121  ARG121      0.1729
     61  C         15.5860   22.9270  -26.8120 C.2   121  ARG121      0.2616
     62  O         15.2480   24.0880  -27.0300 O.2   121  ARG121     -0.2715
     63  CB        15.4770   22.0360  -29.1350 C.3   121  ARG121      0.0348
     64  CG        15.1730   20.9470  -30.0950 C.3   121  ARG121      0.0492
     65  CD        15.9100   19.6580  -29.8290 C.3   121  ARG121      0.2205
     66  NE        17.3330   19.8490  -30.0650 N.pl3 121  ARG121     -0.0865
     67  CZ        18.3150   19.0460  -29.7440 C.cat 121  ARG121      0.5346
     68  NH1       18.0460   17.9400  -29.0400 N.pl3 121  ARG121      0.1354
     69  NH2       19.5570   19.4340  -29.9210 N.pl3 121  ARG121      0.1354
     70  N         16.3810   22.5760  -25.8100 N.am  122  LEU122     -0.1977
     71  CA        16.9180   23.5550  -24.8810 C.3   122  LEU122      0.1596
     72  C         18.2400   24.1300  -25.3420 C.2   122  LEU122      0.2287
     73  O         18.9450   23.5350  -26.1570 O.2   122  LEU122     -0.2864
     74  CB        17.1020   22.9100  -23.5180 C.3   122  LEU122      0.0297
     75  CG        15.7930   22.5390  -22.8410 C.3   122  LEU122      0.0022
     76  CD1       16.0760   21.6680  -21.6110 C.3   122  LEU122      0.0001
     77  CD2       15.0480   23.8370  -22.4990 C.3   122  LEU122      0.0001
     78  N         23.1210   23.4110  -23.9810 N.3   125  TYR125     -0.1241
     79  CA        24.0350   22.4390  -24.5530 C.3   125  TYR125      0.1605
     80  C         25.1610   23.1380  -25.3270 C.2   125  TYR125      0.2264
     81  O         26.0370   22.4790  -25.8950 O.2   125  TYR125     -0.2867
     82  CB        23.2750   21.4790  -25.4850 C.3   125  TYR125      0.0534
     83  CG        22.2190   20.6120  -24.8060 C.ar  125  TYR125     -0.0201
     84  CD1       22.5550   19.3760  -24.2510 C.ar  125  TYR125     -0.0009
     85  CD2       20.8920   21.0470  -24.6820 C.ar  125  TYR125     -0.0009
     86  CE1       21.6000   18.5880  -23.5800 C.ar  125  TYR125      0.0417
     87  CE2       19.9190   20.2630  -24.0050 C.ar  125  TYR125      0.0417
     88  CZ        20.2810   19.0310  -23.4470 C.ar  125  TYR125      0.1957
     89  OH        19.3780   18.2740  -22.7310 O.3   125  TYR125     -0.2866
     90  N         11.0770    4.6060  -20.1350 N.3   170  GLU170     -0.1231
     91  CA        10.0990    3.9030  -20.9110 C.3   170  GLU170      0.1699
     92  C         10.4580    4.2030  -22.3560 C.2   170  GLU170      0.2593
     93  O         11.6310    4.3750  -22.7170 O.2   170  GLU170     -0.2718
     94  CB         8.6830    4.3970  -20.5840 C.3   170  GLU170      0.0402
     95  CG         8.1040    3.8480  -19.2760 C.3   170  GLU170      0.1161
     96  CD         6.6090    4.0500  -19.1590 C.2   170  GLU170      0.3649
     97  OE1        6.0300    3.5660  -18.1610 O.co2 170  GLU170     -0.2457
     98  OE2        6.0210    4.6860  -20.0610 O.co2 170  GLU170     -0.2457
     99  N          9.4170    4.2650  -23.1650 N.am  171  SER171     -0.1938
    100  CA         9.5440    4.5520  -24.5790 C.3   171  SER171      0.2055
    101  C          9.2480    6.0340  -24.8190 C.2   171  SER171      0.2644
    102  O          8.2230    6.5470  -24.3700 O.2   171  SER171     -0.2714
    103  CB         8.5480    3.6790  -25.3260 C.3   171  SER171      0.2130
    104  OG         8.5120    4.0020  -26.6820 O.3   171  SER171     -0.2179
    105  N         10.1420    6.7080  -25.5420 N.am  172  GLY172     -0.1939
    106  CA         9.9730    8.1240  -25.8230 C.3   172  GLY172      0.2014
    107  C         10.3650    8.9610  -24.6190 C.2   172  GLY172      0.2639
    108  O         10.1600   10.1770  -24.5850 O.2   172  GLY172     -0.2714
    109  N         10.9390    8.2900  -23.6340 N.am  173  ALA173     -0.1963
    110  CA        11.3430    8.9460  -22.3910 C.3   173  ALA173      0.1728
    111  C         12.5020    9.8780  -22.6640 C.2   173  ALA173      0.2617
    112  O         12.8260   10.7390  -21.8480 O.2   173  ALA173     -0.2715
    113  CB        11.7460    7.8980  -21.3890 C.3   173  ALA173      0.0334
    114  N         13.1100    9.7070  -23.8340 N.am  174  GLY174     -0.1940
    115  CA        14.2190   10.5390  -24.2170 C.3   174  GLY174      0.2014
    116  C         15.5720    9.9780  -23.8160 C.2   174  GLY174      0.2639
    117  O         16.2660   10.5370  -22.9680 O.2   174  GLY174     -0.2714
    118  N         15.9400    8.8720  -24.4370 N.am  175  LYS175     -0.1963
    119  CA        17.2160    8.2230  -24.1530 C.3   175  LYS175      0.1728
    120  C         17.9930    8.2870  -25.4670 C.2   175  LYS175      0.2617
    121  O         19.1340    8.7560  -25.5230 O.2   175  LYS175     -0.2715
    122  CB        17.0120    6.7820  -23.7100 C.3   175  LYS175      0.0311
    123  CG        15.5730    6.3970  -23.3220 C.3   175  LYS175      0.0038
    124  CD        15.4330    4.9090  -23.0290 C.3   175  LYS175      0.0206
    125  CE        15.9460    4.0830  -24.1910 C.3   175  LYS175      0.1093
    126  NZ        15.5000    4.6090  -25.5120 N.3   175  LYS175     -0.1314
    127  N         17.3670    7.8090  -26.5370 N.am  176  THR176     -0.1937
    128  CA        18.0290    7.8350  -27.8440 C.3   176  THR176      0.2028
    129  C         18.0490    9.2830  -28.3090 C.2   176  THR176      0.2642
    130  O         17.7250    9.5710  -29.4560 O.2   176  THR176     -0.2714
    131  CB        17.2710    6.9790  -28.8980 C.3   176  THR176      0.1808
    132  OG1       16.4090    6.0560  -28.2340 O.3   176  THR176     -0.2208
    133  CG2       18.2470    6.1610  -29.7690 C.3   176  THR176      0.0379
    134  N         18.3970   10.2010  -27.4140 N.am  177  GLU177     -0.1963
    135  CA        18.5010   11.6180  -27.7230 C.3   177  GLU177      0.1733
    136  C         19.5720   12.1510  -26.8040 C.2   177  GLU177      0.2616
    137  O         20.3900   12.9790  -27.1910 O.2   177  GLU177     -0.2715
    138  CB        17.1970   12.3610  -27.4210 C.3   177  GLU177      0.0429
    139  CG        16.4360   12.7830  -28.6560 C.3   177  GLU177      0.1163
    140  CD        17.1760   13.8290  -29.4580 C.2   177  GLU177      0.3649
    141  OE1       17.6660   14.7890  -28.8300 O.co2 177  GLU177     -0.2457
    142  OE2       17.2720   13.7190  -30.6950 O.co2 177  GLU177     -0.2457
    143  N         19.5370   11.6650  -25.5750 N.am  178  ASN178     -0.1972
    144  CA        20.5450   12.0690  -24.6210 C.3   178  ASN178      0.1688
    145  C         21.7730   11.2000  -24.9230 C.2   178  ASN178      0.2292
    146  O         22.8950   11.5910  -24.6080 O.2   178  ASN178     -0.2864
    147  CB        20.0850   11.8710  -23.1570 C.3   178  ASN178      0.1181
    148  CG        18.7730   12.6130  -22.8170 C.2   178  ASN178      0.2629
    149  OD1       18.4120   13.5990  -23.4570 O.2   178  ASN178     -0.2716
    150  ND2       18.0820   12.1300  -21.7920 N.am  178  ASN178     -0.0877
    151  N         23.6010   13.2970  -27.2330 N.3   181  LYS181     -0.1245
    152  CA        24.2470   14.4250  -26.5700 C.3   181  LYS181      0.1561
    153  C         25.4900   14.0250  -25.7680 C.2   181  LYS181      0.2260
    154  O         26.3960   14.8450  -25.5700 O.2   181  LYS181     -0.2867
    155  CB        23.2400   15.0870  -25.6380 C.3   181  LYS181      0.0271
    156  CG        22.1220   15.7740  -26.3600 C.3   181  LYS181      0.0035
    157  CD        22.7090   16.9320  -27.1250 C.3   181  LYS181      0.0206
    158  CE        21.6460   17.7940  -27.7680 C.3   181  LYS181      0.1093
    159  NZ        21.0110   18.7390  -26.8130 N.3   181  LYS181     -0.1314
    160  N         19.0660    6.2980  -38.1470 N.3   211  GLU211     -0.1245
    161  CA        17.7910    6.7990  -37.6410 C.3   211  GLU211      0.1567
    162  C         16.7630    6.7580  -38.7530 C.2   211  GLU211      0.2260
    163  O         15.6260    6.3430  -38.5540 O.2   211  GLU211     -0.2867
    164  CB        17.9280    8.2360  -37.1290 C.3   211  GLU211      0.0388
    165  CG        18.3050    8.3850  -35.6580 C.3   211  GLU211      0.1160
    166  CD        17.5030    9.4790  -34.9450 C.2   211  GLU211      0.3649
    167  OE1       17.3970   10.6020  -35.4900 O.co2 211  GLU211     -0.2457
    168  OE2       16.9840    9.2120  -33.8350 O.co2 211  GLU211     -0.2457
    169  N         14.7550    4.3620  -36.9590 N.3   215  ASN215     -0.1240
    170  CA        13.7740    5.1250  -36.2160 C.3   215  ASN215      0.1653
    171  C         12.5910    5.4760  -37.0780 C.2   215  ASN215      0.2266
    172  O         12.7410    6.0220  -38.1730 O.2   215  ASN215     -0.2867
    173  CB        14.3790    6.3930  -35.6530 C.3   215  ASN215      0.1155
    174  CG        15.2880    6.1220  -34.5050 C.2   215  ASN215      0.2627
    175  OD1       16.3270    5.4880  -34.6690 O.2   215  ASN215     -0.2716
    176  ND2       14.9010    6.5740  -33.3210 N.am  215  ASN215     -0.0877
    177  N          3.3340    6.2920  -30.1190 N.3   220  ARG220     -0.1231
    178  CA         3.9260    6.8400  -28.9100 C.3   220  ARG220      0.1694
    179  C          4.5110    8.2120  -29.1610 C.2   220  ARG220      0.2592
    180  O          3.9130    9.2260  -28.7910 O.2   220  ARG220     -0.2718
    181  CB         5.0300    5.9060  -28.4060 C.3   220  ARG220      0.0321
    182  CG         5.7110    6.3840  -27.1260 C.3   220  ARG220      0.0489
    183  CD         4.7870    6.4320  -25.8970 C.3   220  ARG220      0.2205
    184  NE         5.5970    6.3340  -24.6830 N.pl3 220  ARG220     -0.0865
    185  CZ         5.1240    6.2570  -23.4400 C.cat 220  ARG220      0.5346
    186  NH1        3.8150    6.2730  -23.2120 N.pl3 220  ARG220      0.1354
    187  NH2        5.9660    6.1400  -22.4220 N.pl3 220  ARG220      0.1354
    188  N          5.6890    8.2280  -29.7960 N.am  221  ASN221     -0.1960
    189  CA         6.3800    9.4620  -30.1280 C.3   221  ASN221      0.1819
    190  C          6.3870    9.6670  -31.6580 C.2   221  ASN221      0.2621
    191  O          5.3820    9.4170  -32.3170 O.2   221  ASN221     -0.2715
    192  CB         7.8200    9.3980  -29.6390 C.3   221  ASN221      0.1195
    193  CG         8.6390    8.4910  -30.4790 C.2   221  ASN221      0.2630
    194  OD1        8.1130    7.5250  -31.0140 O.2   221  ASN221     -0.2716
    195  ND2        9.9210    8.7920  -30.6250 N.am  221  ASN221     -0.0877
    196  N          7.5110   10.1080  -32.2190 N.am  222  ASN222     -0.1958
    197  CA         7.5710   10.3900  -33.6560 C.3   222  ASN222      0.1819
    198  C          8.8990    9.9190  -34.2300 C.2   222  ASN222      0.2621
    199  O          9.0670    9.8230  -35.4420 O.2   222  ASN222     -0.2715
    200  CB         7.4310   11.8920  -33.9150 C.3   222  ASN222      0.1195
    201  CG         6.3110   12.5470  -33.0940 C.2   222  ASN222      0.2630
    202  OD1        6.4230   12.6980  -31.8790 O.2   222  ASN222     -0.2716
    203  ND2        5.2290   12.9370  -33.7650 N.am  222  ASN222     -0.0877
    204  N          9.8370    9.6290  -33.3450 N.am  223  ASN223     -0.1958
    205  CA        11.1560    9.2300  -33.7780 C.3   223  ASN223      0.1819
    206  C         11.6460    8.0450  -32.9610 C.2   223  ASN223      0.2622
    207  O         12.8080    7.9740  -32.5560 O.2   223  ASN223     -0.2715
    208  CB        12.0810   10.4210  -33.6230 C.3   223  ASN223      0.1195
    209  CG        13.4320   10.1600  -34.1730 C.2   223  ASN223      0.2630
    210  OD1       14.3310   10.9820  -34.0500 O.2   223  ASN223     -0.2716
    211  ND2       13.5950    9.0030  -34.7940 N.am  223  ASN223     -0.0877
    212  N         10.7160    7.1170  -32.7390 N.am  224  SER224     -0.1936
    213  CA        10.9790    5.9150  -31.9800 C.3   224  SER224      0.2055
    214  C         12.0620    5.0870  -32.6010 C.2   224  SER224      0.2644
    215  O         12.1300    4.9320  -33.8190 O.2   224  SER224     -0.2714
    216  CB         9.7200    5.0600  -31.8780 C.3   224  SER224      0.2130
    217  OG        10.0180    3.7960  -31.2950 O.3   224  SER224     -0.2179
    218  N         12.9020    4.5420  -31.7330 N.am  225  SER225     -0.1935
    219  CA        13.9950    3.7070  -32.1660 C.3   225  SER225      0.2055
    220  C         13.5210    2.2500  -32.2720 C.2   225  SER225      0.2642
    221  O         13.1480    1.6160  -31.2840 O.2   225  SER225     -0.2714
    222  CB        15.1420    3.8260  -31.1660 C.3   225  SER225      0.2130
    223  OG        14.7010    3.5940  -29.8460 O.3   225  SER225     -0.2179
    224  N         13.5310    1.7310  -33.4860 N.am  226  ARG226     -0.1977
    225  CA        13.1150    0.3640  -33.7300 C.3   226  ARG226      0.1597
    226  C         14.3180   -0.5500  -33.8730 C.2   226  ARG226      0.2287
    227  O         14.3180   -1.4850  -34.6670 O.2   226  ARG226     -0.2864
    228  CB        12.2240    0.3140  -34.9570 C.3   226  ARG226      0.0334
    229  CG        10.8960    0.9840  -34.6880 C.3   226  ARG226      0.0492
    230  CD        10.3030    0.4450  -33.3860 C.3   226  ARG226      0.2205
    231  NE         8.9040    0.0580  -33.5340 N.pl3 226  ARG226     -0.0865
    232  CZ         8.1340   -0.3640  -32.5360 C.cat 226  ARG226      0.5346
    233  NH1        8.6400   -0.4490  -31.3170 N.pl3 226  ARG226      0.1354
    234  NH2        6.8630   -0.6820  -32.7470 N.pl3 226  ARG226      0.1354
    235  N         15.0610    0.5630  -25.6420 N.3   443  ALA443     -0.1245
    236  CA        13.8500    0.5640  -24.8410 C.3   443  ALA443      0.1562
    237  C         13.7830   -0.7240  -24.0640 C.2   443  ALA443      0.2260
    238  O         14.0880   -1.8000  -24.5810 O.2   443  ALA443     -0.2867
    239  CB        12.6200    0.6810  -25.7250 C.3   443  ALA443      0.0290
@<TRIPOS>BOND
     1   162   163    2
     2   162   161    1
     3   172   171    2
     4   160   161    1
     5   161   164    1
     6   164   165    1
     7   171   170    1
     8   169   170    1
     9   170   173    1
    10   165   166    1
    11   173   174    1
    12   167   166   ar
    13   199   198    2
    14   228   229    1
    15   228   225    1
    16   166   168   ar
    17   211   209   am
    18   229   230    1
    19   175   174    2
    20   227   226    2
    21   174   176   am
    22   198   197    1
    23   198   204   am
    24   209   210    2
    25   209   208    1
    26   200   197    1
    27   200   201    1
    28   226   225    1
    29   215   214    2
    30   205   208    1
    31   205   204    1
    32   205   206    1
    33   203   201   am
    34   225   224    1
    35   197   196    1
    36   231   230    1
    37   231   232    2
    38   224   220   am
    39   201   202    2
    40   206   212   am
    41   206   207    2
    42   234   232    1
    43   212   213    1
    44   214   213    1
    45   214   218   am
    46   232   233    1
    47   191   190    2
    48   220   219    1
    49   220   221    2
    50   196   190   am
    51   219   218    1
    52   219   222    1
    53   213   216    1
    54   216   217    1
    55   190   189    1
    56   222   223    1
    57   194   193    2
    58   142   140   ar
    59   195   193   am
    60   193   192    1
    61   189   188    1
    62   189   192    1
    63   177   178    1
    64    64    65    1
    65    64    63    1
    66    66    65    1
    67    66    67    2
    68    69    67    1
    69   188   179   am
    70   133   131    1
    71    67    68    1
    72   140   141   ar
    73   140   139    1
    74   130   129    2
    75   179   178    1
    76   179   180    2
    77    63    60    1
    78   178   181    1
    79   131   132    1
    80   131   128    1
    81   139   138    1
    82   181   182    1
    83   129   128    1
    84   129   134   am
    85   128   127    1
    86   158   157    1
    87   158   159    1
    88   135   138    1
    89   135   134    1
    90   135   136    1
    91    60    59    1
    92    60    61    1
    93    59    50   am
    94   151   152    1
    95   137   136    2
    96   182   183    1
    97   157   156    1
    98    62    61    2
    99    61    70   am
   100   136   143   am
   101   104   103    1
   102   152   153    1
   103   152   155    1
   104   127   120   am
   105    50    49    1
   106    50    51    2
   107    49    48    1
   108    49    52    1
   109   156   155    1
   110    45    43   ar
   111    45    46   ar
   112    39    38    2
   113    43    41   ar
   114    73    72    2
   115    48    38   am
   116    38    37    1
   117    58    56    1
   118   183   184    1
   119    81    80    2
   120    53    52    1
   121    53    54    1
   122   106   105    1
   123   106   107    1
   124    70    71    1
   125   153   154    2
   126   239   236    1
   127   235   236    1
   128   143   144    1
   129   105   101   am
   130   121   120    2
   131    56    57    1
   132    56    55    2
   133    37    40    1
   134    37    36    1
   135   126   125    1
   136    82    83    1
   137    82    79    1
   138   120   119    1
   139    47    46    1
   140    46    44   ar
   141    41    40    1
   142    41    42   ar
   143    72    71    1
   144    80    79    1
   145   103   100    1
   146    55    54    1
   147   145   144    1
   148   145   146    2
   149    71    74    1
   150   236   237    1
   151   101   100    1
   152   101   102    2
   153    83    85   ar
   154    83    84   ar
   155   184   185    2
   156    85    87   ar
   157   144   147    1
   158   107   108    2
   159   107   109   am
   160   238   237    2
   161   100    99    1
   162    44    42   ar
   163    79    78    1
   164    28    26   am
   165   118   119    1
   166   118   116   am
   167    36    31   am
   168    84    86   ar
   169   115   114    1
   170   115   116    1
   171   125   124    1
   172   119   122    1
   173    27    26    2
   174    87    88   ar
   175   114   111   am
   176   116   117    2
   177   122   123    1
   178    26    25    1
   179   109   110    1
   180    86    88   ar
   181    74    75    1
   182   149   148    2
   183    88    89    1
   184   185   186    1
   185   185   187    1
   186   123   124    1
   187    31    32    2
   188    31    30    1
   189    99    92   am
   190   147   148    1
   191    34    35    1
   192    34    33    1
   193    75    77    1
   194    75    76    1
   195   148   150   am
   196    93    92    2
   197   111   110    1
   198   111   112    2
   199    35    29    1
   200   110   113    1
   201    92    91    1
   202    25    22    1
   203    33    30    1
   204    30    29    1
   205    29    23   am
   206    22    23    1
   207    22    21    1
   208    23    24    2
   209    91    94    1
   210    91    90    1
   211    94    95    1
   212    20    19    1
   213    98    96   ar
   214    95    96    1
   215    96    97   ar
   216    19    18   ar
   217    19    17   ar
   218    18    16   ar
   219     6     5    1
   220     6     8    1
   221     7     5    1
   222     5     2    1
   223    17    15   ar
   224    16    14   ar
   225     4     3    2
   226    15    14   ar
   227     2     3    1
   228     2     1    1
   229    14    13    1
   230     3     9   am
   231    13    10    1
   232     9    10    1
   233    10    11    1
   234    11    12    2
