@<TRIPOS>MOLECULE
tmp/1kwqA00.pdb
 153 148 0 0 0
SMALL
GASTEIGER

@<TRIPOS>ATOM
      1  N         -3.2230    0.5390    3.7560 N.3    60  ASN60      -0.1240
      2  CA        -2.0680    1.3290    4.1580 C.3    60  ASN60       0.1653
      3  C         -0.8050    0.5060    4.3870 C.2    60  ASN60       0.2266
      4  O          0.2110    1.0370    4.8490 O.2    60  ASN60      -0.2867
      5  CB        -2.3940    2.1690    5.3920 C.3    60  ASN60       0.1155
      6  CG        -2.8310    1.3330    6.5800 C.2    60  ASN60       0.2627
      7  OD1       -2.5320    0.1470    6.6720 O.2    60  ASN60      -0.2716
      8  ND2       -3.5260    1.9630    7.5090 N.am   60  ASN60      -0.0877
      9  N         -8.2820    0.3750    5.9400 N.3    65  ASN65      -0.1240
     10  CA        -9.1680    1.2600    6.7060 C.3    65  ASN65       0.1653
     11  C        -10.3250    1.7890    5.8640 C.2    65  ASN65       0.2266
     12  O        -10.1380    2.1320    4.7090 O.2    65  ASN65      -0.2867
     13  CB        -8.4130    2.4930    7.2240 C.3    65  ASN65       0.1155
     14  CG        -7.2200    2.1510    8.0790 C.2    65  ASN65       0.2627
     15  OD1       -6.4010    3.0120    8.3760 O.2    65  ASN65      -0.2716
     16  ND2       -7.1160    0.9020    8.4910 N.am   65  ASN65      -0.0877
     17  N        -13.9040    8.2790   12.8590 N.3    89  ILE89      -0.1231
     18  CA       -13.0370    8.7290   11.7850 C.3    89  ILE89       0.1692
     19  C        -12.7950    7.5980   10.7940 C.2    89  ILE89       0.2591
     20  O        -12.7000    7.8290    9.5900 O.2    89  ILE89      -0.2718
     21  CB       -11.6930    9.2900   12.3050 C.3    89  ILE89       0.0266
     22  CG1      -10.7820    9.6180   11.1190 C.3    89  ILE89       0.0019
     23  CG2      -11.0350    8.3340   13.2790 C.3    89  ILE89       0.0020
     24  CD1       -9.5040   10.3430   11.4820 C.3    89  ILE89       0.0001
     25  N        -12.7490    6.3710   11.3020 N.am   90  GLN90      -0.1979
     26  CA       -12.5150    5.1960   10.4710 C.3    90  GLN90       0.1601
     27  C        -12.5990    3.8850   11.2510 C.2    90  GLN90       0.2287
     28  O        -12.5710    3.8860   12.4740 O.2    90  GLN90      -0.2864
     29  CB       -11.1300    5.3010    9.8090 C.3    90  GLN90       0.0394
     30  CG        -9.9620    5.5910   10.7590 C.3    90  GLN90       0.0908
     31  CD        -9.1250    4.3690   11.0870 C.2    90  GLN90       0.2608
     32  OE1       -9.5500    3.2420   10.8790 O.2    90  GLN90      -0.2717
     33  NE2       -7.9230    4.5940   11.5930 N.am   90  GLN90      -0.0878
     34  N        -11.3180   -0.4610   11.0440 N.3    92  HIS92      -0.1241
     35  CA       -10.4710   -1.4440   10.3970 C.3    92  HIS92       0.1621
     36  C        -10.5180   -2.7250   11.1940 C.2    92  HIS92       0.2264
     37  O        -11.1000   -2.7800   12.2720 O.2    92  HIS92      -0.2867
     38  CB        -9.0280   -0.9530   10.2880 C.3    92  HIS92       0.0745
     39  CG        -8.4260   -0.5680   11.5960 C.ar   92  HIS92       0.0817
     40  ND1       -8.6000    0.6790   12.1510 N.ar   92  HIS92      -0.2268
     41  CD2       -7.6680   -1.2670   12.4710 C.ar   92  HIS92       0.1154
     42  CE1       -7.9750    0.7340   13.3120 C.ar   92  HIS92       0.1986
     43  NE2       -7.4000   -0.4330   13.5290 N.ar   92  HIS92      -0.2212
     44  N         -8.2660   -6.6150   12.2130 N.3    94  HIS94      -0.1241
     45  CA        -6.9800   -7.2070   12.5710 C.3    94  HIS94       0.1621
     46  C         -7.2740   -8.6890   12.5750 C.2    94  HIS94       0.2264
     47  O         -7.8930   -9.1890   13.5020 O.2    94  HIS94      -0.2867
     48  CB        -6.5650   -6.7880   13.9760 C.3    94  HIS94       0.0745
     49  CG        -6.0920   -5.3770   14.0750 C.ar   94  HIS94       0.0817
     50  ND1       -4.7550   -5.0490   14.0810 N.ar   94  HIS94      -0.2268
     51  CD2       -6.7680   -4.2120   14.1810 C.ar   94  HIS94       0.1154
     52  CE1       -4.6280   -3.7380   14.1810 C.ar   94  HIS94       0.1986
     53  NE2       -5.8350   -3.2080   14.2430 N.ar   94  HIS94      -0.2212
     54  N        -12.2680   -2.4700   14.8720 N.3   117  HIS117     -0.1241
     55  CA       -12.0090   -1.3140   15.7240 C.3   117  HIS117      0.1621
     56  C        -12.5590   -0.0820   15.0390 C.2   117  HIS117      0.2264
     57  O        -12.0790    0.2930   13.9720 O.2   117  HIS117     -0.2867
     58  CB       -10.5170   -1.0890   15.9060 C.3   117  HIS117      0.0745
     59  CG        -9.8210   -2.1350   16.7150 C.ar  117  HIS117      0.0817
     60  ND1       -8.4650   -2.3420   16.6210 N.ar  117  HIS117     -0.2268
     61  CD2      -10.2620   -2.9840   17.6720 C.ar  117  HIS117      0.1154
     62  CE1       -8.0950   -3.2680   17.4850 C.ar  117  HIS117      0.1986
     63  NE2       -9.1680   -3.6730   18.1390 N.ar  117  HIS117     -0.2212
     64  N        -12.5520    3.5090   15.2380 N.3   119  VAL119     -0.1245
     65  CA       -11.8150    4.6000   15.8700 C.3   119  VAL119      0.1561
     66  C        -12.5940    5.9070   15.9260 C.2   119  VAL119      0.2260
     67  O        -13.1240    6.3460   14.9130 O.2   119  VAL119     -0.2867
     68  CB       -10.4610    4.8180   15.1570 C.3   119  VAL119      0.0252
     69  CG1       -9.6190    5.8700   15.8920 C.3   119  VAL119      0.0019
     70  CG2       -9.7090    3.5000   15.0790 C.3   119  VAL119      0.0019
     71  N         -8.3480   15.3490   14.6630 N.3   128  PHE128     -0.1241
     72  CA        -7.7510   14.0760   15.0720 C.3   128  PHE128      0.1605
     73  C         -6.3250   14.1750   15.6030 C.2   128  PHE128      0.2264
     74  O         -5.9720   13.5120   16.5700 O.2   128  PHE128     -0.2867
     75  CB        -7.8160   13.0870   13.9010 C.3   128  PHE128      0.0534
     76  CG        -7.0990   11.7950   14.1510 C.ar  128  PHE128     -0.0203
     77  CD1       -7.7060   10.7780   14.8630 C.ar  128  PHE128     -0.0042
     78  CD2       -5.8000   11.6050   13.6870 C.ar  128  PHE128     -0.0042
     79  CE1       -7.0310    9.5890   15.1160 C.ar  128  PHE128     -0.0003
     80  CE2       -5.1170   10.4200   13.9360 C.ar  128  PHE128     -0.0003
     81  CZ        -5.7330    9.4140   14.6520 C.ar  128  PHE128     -0.0000
     82  N         -4.8780   12.8960   19.5250 N.3   132  VAL132     -0.1245
     83  CA        -3.8220   11.9440   19.8380 C.3   132  VAL132      0.1561
     84  C         -2.8120   12.5500   20.8300 C.2   132  VAL132      0.2260
     85  O         -1.9900   11.8330   21.3960 O.2   132  VAL132     -0.2867
     86  CB        -3.0990   11.4070   18.5660 C.3   132  VAL132      0.0252
     87  CG1       -3.9820   10.3970   17.8370 C.3   132  VAL132      0.0019
     88  CG2       -2.7160   12.5440   17.6360 C.3   132  VAL132      0.0019
     89  N         -9.1190    9.5350   22.3540 N.3   138  LEU138     -0.1245
     90  CA        -9.7540    8.5850   21.4490 C.3   138  LEU138      0.1561
     91  C        -10.5590    7.5290   22.1820 C.2   138  LEU138      0.2260
     92  O        -10.2730    7.1980   23.3180 O.2   138  LEU138     -0.2867
     93  CB        -8.7100    7.8640   20.6000 C.3   138  LEU138      0.0270
     94  CG        -7.7100    8.6480   19.7530 C.3   138  LEU138      0.0019
     95  CD1       -6.6340    7.7000   19.2500 C.3   138  LEU138      0.0001
     96  CD2       -8.4080    9.3280   18.6000 C.3   138  LEU138      0.0001
     97  N        -11.8940    3.7930   21.0220 N.3   140  VAL140     -0.1245
     98  CA       -11.9660    2.7790   19.9870 C.3   140  VAL140      0.1561
     99  C        -12.9590    1.7340   20.4680 C.2   140  VAL140      0.2260
    100  O        -12.9290    1.3310   21.6180 O.2   140  VAL140     -0.2867
    101  CB       -10.5720    2.1440   19.7140 C.3   140  VAL140      0.0252
    102  CG1      -10.6430    1.1850   18.5540 C.3   140  VAL140      0.0019
    103  CG2       -9.5500    3.2300   19.4070 C.3   140  VAL140      0.0019
    104  N         -2.9350    3.0330   21.2870 N.3   195  LEU195     -0.1231
    105  CA        -3.0730    2.5400   19.9270 C.3   195  LEU195      0.1693
    106  C         -2.3710    1.1890   19.9590 C.2   195  LEU195      0.2593
    107  O         -1.4950    0.9790   20.7930 O.2   195  LEU195     -0.2718
    108  CB        -2.3690    3.4730   18.9420 C.3   195  LEU195      0.0284
    109  CG        -2.8570    4.9150   18.9610 C.3   195  LEU195      0.0019
    110  CD1       -2.1960    5.7150   17.8550 C.3   195  LEU195      0.0001
    111  CD2       -4.3490    4.9230   18.7800 C.3   195  LEU195      0.0001
    112  N         -2.7670    0.2660   19.0880 N.am  196  THR196     -0.1939
    113  CA        -2.1540   -1.0590   19.0720 C.3   196  THR196      0.2028
    114  C         -1.1050   -1.1990   17.9790 C.2   196  THR196      0.2643
    115  O         -0.5200   -2.2660   17.8190 O.2   196  THR196     -0.2714
    116  CB        -3.2040   -2.1770   18.9080 C.3   196  THR196      0.1808
    117  OG1       -3.6710   -2.1910   17.5610 O.3   196  THR196     -0.2208
    118  CG2       -4.3880   -1.9460   19.8320 C.3   196  THR196      0.0379
    119  N         -0.9420   -0.1480   17.1790 N.am  197  THR197     -0.1937
    120  CA         0.0500   -0.0960   16.1020 C.3   197  THR197      0.2013
    121  C          0.7300    1.2510   16.2630 C.2   197  THR197      0.2484
    122  O          0.1110    2.1960   16.7420 O.2   197  THR197     -0.2729
    123  CB        -0.5910   -0.1030   14.6970 C.3   197  THR197      0.1807
    124  OG1       -1.0910    1.2020   14.4000 O.3   197  THR197     -0.2208
    125  CG2       -1.7420   -1.0840   14.6210 C.3   197  THR197      0.0379
    126  N          2.0080    1.3670   15.8800 N.am  198  PRO198     -0.2715
    127  CA         2.7040    2.6530   16.0140 C.3   198  PRO198      0.1521
    128  C          1.8910    3.8270   15.4580 C.2   198  PRO198      0.2440
    129  O          1.1700    3.6710   14.4690 O.2   198  PRO198     -0.2731
    130  CB         3.9830    2.4080   15.2340 C.3   198  PRO198      0.0310
    131  CG         4.2890    0.9820   15.6190 C.3   198  PRO198      0.0237
    132  CD         2.9450    0.3150   15.4350 C.3   198  PRO198      0.0939
    133  N          2.0460    5.0330   16.0360 N.am  199  PRO199     -0.2727
    134  CA         2.8970    5.4610   17.1560 C.3   199  PRO199      0.1402
    135  C          2.6680    4.9050   18.5620 C.2   199  PRO199      0.2269
    136  O          3.4490    5.1970   19.4690 O.2   199  PRO199     -0.2865
    137  CB         2.7540    6.9820   17.1230 C.3   199  PRO199      0.0296
    138  CG         1.3850    7.1740   16.5990 C.3   199  PRO199      0.0237
    139  CD         1.3220    6.1870   15.4810 C.3   199  PRO199      0.0939
    140  N        -10.5380    2.3370   25.7480 N.3   206  TRP206     -0.1241
    141  CA       -11.0100    1.1420   25.0750 C.3   206  TRP206      0.1605
    142  C        -12.3370    0.6090   25.5350 C.2   206  TRP206      0.2264
    143  O        -12.5380    0.3930   26.7180 O.2   206  TRP206     -0.2867
    144  CB        -9.9760    0.0410   25.2010 C.3   206  TRP206      0.0550
    145  CG        -8.9270    0.1160   24.1750 C.ar  206  TRP206      0.0003
    146  CD1       -7.6800    0.6250   24.3170 C.ar  206  TRP206      0.0946
    147  CD2       -9.0310   -0.3390   22.8260 C.ar  206  TRP206      0.0152
    148  NE1       -6.9910    0.5210   23.1360 N.ar  206  TRP206     -0.2442
    149  CE2       -7.7970   -0.0680   22.2010 C.ar  206  TRP206      0.0810
    150  CE3      -10.0500   -0.9480   22.0840 C.ar  206  TRP206      0.0012
    151  CZ2       -7.5480   -0.3850   20.8660 C.ar  206  TRP206      0.0191
    152  CZ3       -9.8020   -1.2640   20.7560 C.ar  206  TRP206      0.0001
    153  CH2       -8.5570   -0.9800   20.1610 C.ar  206  TRP206      0.0015
@<TRIPOS>BOND
     1     1     2    1
     2     2     3    1
     3     2     5    1
     4     3     4    2
     5    12    11    2
     6     5     6    1
     7    11    10    1
     8     9    10    1
     9     6     7    2
    10     6     8   am
    11    10    13    1
    12    13    14    1
    13    14    15    2
    14    14    16   am
    15    20    19    2
    16    29    26    1
    17    29    30    1
    18    38    35    1
    19    38    39    1
    20    35    34    1
    21    35    36    1
    22    26    27    1
    23    26    25    1
    24    30    31    1
    25    19    25   am
    26    19    18    1
    27    32    31    2
    28    31    33   am
    29    22    24    1
    30    22    21    1
    31    36    37    2
    32    27    28    2
    33    39    40   ar
    34    39    41   ar
    35    18    21    1
    36    18    17    1
    37    40    42   ar
    38    44    45    1
    39    21    23    1
    40    41    43   ar
    41    45    46    1
    42    45    48    1
    43    46    47    2
    44    42    43   ar
    45    78    80   ar
    46    78    76   ar
    47    75    76    1
    48    75    72    1
    49    80    81   ar
    50    57    56    2
    51    48    49    1
    52    49    50   ar
    53    49    51   ar
    54    50    52   ar
    55    76    77   ar
    56    52    53   ar
    57    51    53   ar
    58   124   123    1
    59   129   128    2
    60   125   123    1
    61    81    79   ar
    62    71    72    1
    63   123   120    1
    64    77    79   ar
    65    54    55    1
    66    67    66    2
    67    56    55    1
    68    72    73    1
    69    70    68    1
    70    68    65    1
    71    68    69    1
    72   130   131    1
    73   130   127    1
    74    64    65    1
    75   132   131    1
    76   132   126    1
    77   128   127    1
    78   128   133   am
    79   139   133    1
    80   139   138    1
    81    73    74    2
    82    55    58    1
    83    65    66    1
    84   126   127    1
    85   126   121   am
    86    58    59    1
    87   133   134    1
    88   120   121    1
    89   120   119    1
    90   121   122    2
    91   138   137    1
    92    60    59   ar
    93    60    62   ar
    94    59    61   ar
    95   137   134    1
    96   134   135    1
    97   119   114   am
    98    62    63   ar
    99   117   116    1
   100    88    86    1
   101    61    63   ar
   102   115   114    2
   103    87    86    1
   104   110   109    1
   105   114   113    1
   106   102   101    1
   107   135   136    2
   108    86    83    1
   109    96    94    1
   110   111   109    1
   111   116   113    1
   112   116   118    1
   113   108   109    1
   114   108   105    1
   115   113   112    1
   116   112   106   am
   117    95    94    1
   118   103   101    1
   119    82    83    1
   120   101    98    1
   121    94    93    1
   122    83    84    1
   123   105   106    1
   124   105   104    1
   125   106   107    2
   126    98    99    1
   127    98    97    1
   128   153   152   ar
   129   153   151   ar
   130    99   100    2
   131    93    90    1
   132   152   150   ar
   133    84    85    2
   134   151   149   ar
   135    90    91    1
   136    90    89    1
   137   150   147   ar
   138    91    92    2
   139   149   147   ar
   140   149   148   ar
   141   147   145   ar
   142   148   146   ar
   143   145   146   ar
   144   145   144    1
   145   141   144    1
   146   141   142    1
   147   141   140    1
   148   142   143    2
