@<TRIPOS>MOLECULE
tmp/1kwrA00.pdb
 122 121 0 0 0
SMALL
GASTEIGER

@<TRIPOS>ATOM
      1  N        -13.9630    8.3110   12.7870 N.3    89  ILE89      -0.1231
      2  CA       -13.1240    8.7320   11.6960 C.3    89  ILE89       0.1692
      3  C        -12.8590    7.5720   10.7390 C.2    89  ILE89       0.2591
      4  O        -12.8230    7.7630    9.5290 O.2    89  ILE89      -0.2718
      5  CB       -11.8130    9.3650   12.2150 C.3    89  ILE89       0.0266
      6  CG1      -10.8510    9.5950   11.0630 C.3    89  ILE89       0.0019
      7  CG2      -11.1400    8.4980   13.2740 C.3    89  ILE89       0.0020
      8  CD1       -9.6150   10.3350   11.4700 C.3    89  ILE89       0.0001
      9  N        -12.6540    6.3690   11.2730 N.am   90  GLN90      -0.1979
     10  CA       -12.3960    5.2020   10.4260 C.3    90  GLN90       0.1601
     11  C        -12.4170    3.8720   11.1690 C.2    90  GLN90       0.2287
     12  O        -12.4030    3.8490   12.3990 O.2    90  GLN90      -0.2864
     13  CB       -11.0540    5.3680    9.7030 C.3    90  GLN90       0.0394
     14  CG        -9.8600    5.5870   10.6210 C.3    90  GLN90       0.0908
     15  CD        -9.1330    4.3060   10.9810 C.2    90  GLN90       0.2608
     16  OE1       -9.6680    3.2160   10.8580 O.2    90  GLN90      -0.2717
     17  NE2       -7.8940    4.4400   11.4220 N.am   90  GLN90      -0.0878
     18  N        -11.0490   -0.4340   10.9160 N.3    92  HIS92      -0.1241
     19  CA       -10.1660   -1.3970   10.2990 C.3    92  HIS92       0.1621
     20  C        -10.1990   -2.6980   11.0930 C.2    92  HIS92       0.2264
     21  O        -10.8280   -2.7800   12.1430 O.2    92  HIS92      -0.2867
     22  CB        -8.7610   -0.8410   10.2770 C.3    92  HIS92       0.0745
     23  CG        -8.2720   -0.4320   11.6290 C.ar   92  HIS92       0.0817
     24  ND1       -8.6660    0.7410   12.2340 N.ar   92  HIS92      -0.2268
     25  CD2       -7.4580   -1.0580   12.5060 C.ar   92  HIS92       0.1154
     26  CE1       -8.1130    0.8180   13.4310 C.ar   92  HIS92       0.1986
     27  NE2       -7.3760   -0.2610   13.6220 N.ar   92  HIS92      -0.2212
     28  N         -8.0100   -6.5210   12.3080 N.3    94  HIS94      -0.1241
     29  CA        -6.7700   -7.2050   12.6280 C.3    94  HIS94       0.1621
     30  C         -7.1810   -8.6600   12.5240 C.2    94  HIS94       0.2264
     31  O         -8.2120   -9.0450   13.0590 O.2    94  HIS94      -0.2867
     32  CB        -6.3200   -6.8820   14.0470 C.3    94  HIS94       0.0745
     33  CG        -5.9330   -5.4500   14.2390 C.ar   94  HIS94       0.0817
     34  ND1       -4.6410   -5.0010   14.0680 N.ar   94  HIS94      -0.2268
     35  CD2       -6.6670   -4.3680   14.5820 C.ar   94  HIS94       0.1154
     36  CE1       -4.5970   -3.7040   14.2980 C.ar   94  HIS94       0.1986
     37  NE2       -5.8070   -3.2960   14.6160 N.ar   94  HIS94      -0.2212
     38  N        -11.9510   -2.4930   14.8350 N.3   117  HIS117     -0.1241
     39  CA       -11.6900   -1.3110   15.6490 C.3   117  HIS117      0.1621
     40  C        -12.3440   -0.1180   14.9720 C.2   117  HIS117      0.2264
     41  O        -12.0150    0.2050   13.8330 O.2   117  HIS117     -0.2867
     42  CB       -10.1770   -1.0400   15.7670 C.3   117  HIS117      0.0745
     43  CG        -9.4370   -2.0230   16.6280 C.ar  117  HIS117      0.0817
     44  ND1       -8.0920   -2.2850   16.4690 N.ar  117  HIS117     -0.2268
     45  CD2       -9.8520   -2.8030   17.6530 C.ar  117  HIS117      0.1154
     46  CE1       -7.7150   -3.1830   17.3610 C.ar  117  HIS117      0.1986
     47  NE2       -8.7620   -3.5120   18.0900 N.ar  117  HIS117     -0.2212
     48  N        -12.4890    3.5060   15.2700 N.3   119  VAL119     -0.1245
     49  CA       -11.7520    4.6290   15.8550 C.3   119  VAL119      0.1561
     50  C        -12.5030    5.9560   15.9060 C.2   119  VAL119      0.2260
     51  O        -12.9610    6.4490   14.8750 O.2   119  VAL119     -0.2867
     52  CB       -10.4260    4.8360   15.0850 C.3   119  VAL119      0.0252
     53  CG1       -9.5410    5.8550   15.8040 C.3   119  VAL119      0.0019
     54  CG2       -9.6830    3.5080   14.9360 C.3   119  VAL119      0.0019
     55  N         -8.2920   15.1820   14.6870 N.3   128  PHE128     -0.1241
     56  CA        -7.6670   13.9270   15.1020 C.3   128  PHE128      0.1605
     57  C         -6.2410   14.1600   15.5860 C.2   128  PHE128      0.2264
     58  O         -5.8510   13.7010   16.6610 O.2   128  PHE128     -0.2867
     59  CB        -7.6560   12.9450   13.9200 C.3   128  PHE128      0.0534
     60  CG        -7.0670   11.6000   14.2510 C.ar  128  PHE128     -0.0203
     61  CD1       -7.8350   10.6240   14.8780 C.ar  128  PHE128     -0.0042
     62  CD2       -5.7340   11.3300   13.9820 C.ar  128  PHE128     -0.0042
     63  CE1       -7.2800    9.4120   15.2340 C.ar  128  PHE128     -0.0003
     64  CE2       -5.1680   10.1210   14.3360 C.ar  128  PHE128     -0.0003
     65  CZ        -5.9370    9.1590   14.9640 C.ar  128  PHE128     -0.0000
     66  N        -11.7120    3.8320   21.0230 N.3   140  VAL140     -0.1245
     67  CA       -11.8200    2.8270   19.9870 C.3   140  VAL140      0.1561
     68  C        -12.7940    1.7800   20.5100 C.2   140  VAL140      0.2260
     69  O        -12.7550    1.4050   21.6810 O.2   140  VAL140     -0.2867
     70  CB       -10.4580    2.1920   19.6640 C.3   140  VAL140      0.0252
     71  CG1      -10.5990    1.1800   18.5110 C.3   140  VAL140      0.0019
     72  CG2       -9.4840    3.2620   19.2630 C.3   140  VAL140      0.0019
     73  N         -2.8820    3.1610   21.1990 N.3   195  LEU195     -0.1231
     74  CA        -2.9860    2.6740   19.8320 C.3   195  LEU195      0.1693
     75  C         -2.2170    1.3450   19.8680 C.2   195  LEU195      0.2593
     76  O         -1.3260    1.1720   20.7100 O.2   195  LEU195     -0.2718
     77  CB        -2.3240    3.6610   18.8650 C.3   195  LEU195      0.0284
     78  CG        -3.0240    5.0110   18.7000 C.3   195  LEU195      0.0019
     79  CD1       -2.1770    5.9200   17.8290 C.3   195  LEU195      0.0001
     80  CD2       -4.4020    4.8110   18.0860 C.3   195  LEU195      0.0001
     81  N         -2.5890    0.3950   19.0100 N.am  196  THR196     -0.1939
     82  CA        -1.9340   -0.9080   18.9930 C.3   196  THR196      0.2028
     83  C         -0.8210   -1.0150   17.9630 C.2   196  THR196      0.2643
     84  O         -0.1400   -2.0420   17.8920 O.2   196  THR196     -0.2714
     85  CB        -2.9260   -2.0110   18.7400 C.3   196  THR196      0.1808
     86  OG1       -3.5570   -1.7700   17.4750 O.3   196  THR196     -0.2208
     87  CG2       -3.9760   -2.0560   19.8500 C.3   196  THR196      0.0379
     88  N         -0.7010   -0.0130   17.1000 N.am  197  THR197     -0.1937
     89  CA         0.3830   -0.0150   16.1270 C.3   197  THR197      0.2013
     90  C          1.1500    1.2910   16.3430 C.2   197  THR197      0.2484
     91  O          0.6350    2.2170   16.9850 O.2   197  THR197     -0.2729
     92  CB        -0.1210   -0.0420   14.6710 C.3   197  THR197      0.1807
     93  OG1       -0.5670    1.2640   14.3000 O.3   197  THR197     -0.2208
     94  CG2       -1.2590   -1.0160   14.5140 C.3   197  THR197      0.0379
     95  N          2.3950    1.3770   15.8430 N.am  198  PRO198     -0.2715
     96  CA         3.1490    2.6180   16.0300 C.3   198  PRO198      0.1521
     97  C          2.3000    3.7950   15.5550 C.2   198  PRO198      0.2440
     98  O          1.4290    3.6300   14.7060 O.2   198  PRO198     -0.2731
     99  CB         4.3710    2.3860   15.1480 C.3   198  PRO198      0.0310
    100  CG         4.6310    0.9380   15.3670 C.3   198  PRO198      0.0237
    101  CD         3.2390    0.3440   15.2200 C.3   198  PRO198      0.0939
    102  N          2.4890    4.9860   16.1500 N.am  199  PRO199     -0.2727
    103  CA         3.4000    5.3770   17.2190 C.3   199  PRO199      0.1402
    104  C          3.0510    4.9520   18.6430 C.2   199  PRO199      0.2269
    105  O          3.6800    5.3960   19.5860 O.2   199  PRO199     -0.2865
    106  CB         3.4620    6.8950   17.0650 C.3   199  PRO199      0.0296
    107  CG         2.1150    7.2250   16.6380 C.3   199  PRO199      0.0237
    108  CD         1.7580    6.1590   15.6380 C.3   199  PRO199      0.0939
    109  N        -10.2290    2.3090   25.7800 N.3   206  TRP206     -0.1241
    110  CA       -10.6980    1.1510   25.0590 C.3   206  TRP206      0.1605
    111  C        -12.0560    0.6650   25.5170 C.2   206  TRP206      0.2264
    112  O        -12.3360    0.6020   26.7100 O.2   206  TRP206     -0.2867
    113  CB        -9.6770    0.0300   25.1490 C.3   206  TRP206      0.0550
    114  CG        -8.6490    0.1370   24.1180 C.ar  206  TRP206      0.0003
    115  CD1       -7.4170    0.6690   24.2550 C.ar  206  TRP206      0.0946
    116  CD2       -8.7440   -0.3390   22.7750 C.ar  206  TRP206      0.0152
    117  NE1       -6.7250    0.5550   23.0790 N.ar  206  TRP206     -0.2442
    118  CE2       -7.5180   -0.0570   22.1500 C.ar  206  TRP206      0.0810
    119  CE3       -9.7540   -0.9770   22.0350 C.ar  206  TRP206      0.0012
    120  CZ2       -7.2610   -0.3900   20.8220 C.ar  206  TRP206      0.0191
    121  CZ3       -9.4980   -1.3080   20.7180 C.ar  206  TRP206      0.0001
    122  CH2       -8.2610   -1.0100   20.1220 C.ar  206  TRP206      0.0015
@<TRIPOS>BOND
     1     4     3    2
     2    13    10    1
     3    13    14    1
     4    22    19    1
     5    22    23    1
     6    19    18    1
     7    19    20    1
     8    10    11    1
     9    10     9    1
    10    14    15    1
    11     3     9   am
    12     3     2    1
    13    16    15    2
    14    15    17   am
    15     6     8    1
    16     6     5    1
    17    20    21    2
    18    11    12    2
    19    23    24   ar
    20    23    25   ar
    21     2     5    1
    22     2     1    1
    23     5     7    1
    24    24    26   ar
    25    28    29    1
    26    25    27   ar
    27    30    29    1
    28    30    31    2
    29    29    32    1
    30    26    27   ar
    31    41    40    2
    32    59    60    1
    33    59    56    1
    34    62    60   ar
    35    62    64   ar
    36    32    33    1
    37    34    33   ar
    38    34    36   ar
    39    33    35   ar
    40    60    61   ar
    41    36    37   ar
    42    93    92    1
    43    64    65   ar
    44    94    92    1
    45    35    37   ar
    46    92    89    1
    47    55    56    1
    48    98    97    2
    49    38    39    1
    50    51    50    2
    51    61    63   ar
    52    54    52    1
    53    65    63   ar
    54    40    39    1
    55    52    53    1
    56    52    49    1
    57    56    57    1
    58    99   100    1
    59    99    96    1
    60   101   100    1
    61   101    95    1
    62    48    49    1
    63    97    96    1
    64    97   102   am
    65    57    58    2
    66   108   102    1
    67   108   107    1
    68    39    42    1
    69    42    43    1
    70    95    96    1
    71    95    90   am
    72    49    50    1
    73    89    90    1
    74    89    88    1
    75   102   103    1
    76    90    91    2
    77    44    43   ar
    78    44    46   ar
    79    43    45   ar
    80   107   106    1
    81   106   103    1
    82    88    83   am
    83   103   104    1
    84    46    47   ar
    85    86    85    1
    86    45    47   ar
    87    79    78    1
    88    84    83    2
    89    83    82    1
    90    80    78    1
    91    71    70    1
    92   104   105    2
    93    78    77    1
    94    85    82    1
    95    85    87    1
    96    77    74    1
    97    82    81    1
    98    81    75   am
    99    72    70    1
   100    70    67    1
   101    74    75    1
   102    74    73    1
   103    75    76    2
   104    67    68    1
   105    67    66    1
   106   122   121   ar
   107   122   120   ar
   108    68    69    2
   109   121   119   ar
   110   120   118   ar
   111   119   116   ar
   112   118   116   ar
   113   118   117   ar
   114   116   114   ar
   115   117   115   ar
   116   114   115   ar
   117   114   113    1
   118   110   113    1
   119   110   111    1
   120   110   109    1
   121   111   112    2
