@<TRIPOS>MOLECULE
tmp/1kwsA00.pdb
 193 186 0 0 0
SMALL
GASTEIGER

@<TRIPOS>ATOM
      1  N         16.4230   -4.8360   13.7640 N.3     8  PRO8       -0.2102
      2  CA        17.3940   -5.8520   14.1650 C.3     8  PRO8        0.1504
      3  C         17.6970   -5.5610   15.6340 C.2     8  PRO8        0.2576
      4  O         17.7030   -4.3930   16.0560 O.2     8  PRO8       -0.2718
      5  CB        18.5820   -5.5850   13.2440 C.3     8  PRO8        0.0282
      6  CG        18.5070   -4.1200   13.0080 C.3     8  PRO8        0.0208
      7  CD        17.0240   -3.8510   12.8500 C.3     8  PRO8        0.0893
      8  N         17.9200   -6.6100   16.4170 N.am    9  THR9       -0.1939
      9  CA        18.1990   -6.4340   17.8360 C.3     9  THR9        0.2028
     10  C         19.1290   -7.5500   18.3070 C.2     9  THR9        0.2642
     11  O         19.1470   -8.6360   17.7340 O.2     9  THR9       -0.2714
     12  CB        16.8980   -6.4860   18.6590 C.3     9  THR9        0.1808
     13  OG1       17.1450   -6.0170   19.9930 O.3     9  THR9       -0.2208
     14  CG2       16.3740   -7.9170   18.7240 C.3     9  THR9        0.0379
     15  N         19.9010   -7.2710   19.3490 N.am   10  TYR10      -0.1973
     16  CA        20.8280   -8.2480   19.8930 C.3    10  TYR10       0.1639
     17  C         20.8810   -8.0860   21.4060 C.2    10  TYR10       0.2290
     18  O         20.5800   -7.0170   21.9460 O.2    10  TYR10      -0.2864
     19  CB        22.2260   -8.0610   19.2750 C.3    10  TYR10       0.0560
     20  CG        22.9230   -6.7680   19.6570 C.ar   10  TYR10      -0.0198
     21  CD1       24.0590   -6.7800   20.4750 C.ar   10  TYR10      -0.0009
     22  CD2       22.4420   -5.5340   19.2160 C.ar   10  TYR10      -0.0009
     23  CE1       24.6970   -5.5930   20.8410 C.ar   10  TYR10       0.0417
     24  CE2       23.0700   -4.3420   19.5770 C.ar   10  TYR10       0.0417
     25  CZ        24.1970   -4.3810   20.3890 C.ar   10  TYR10       0.1957
     26  OH        24.8220   -3.2100   20.7420 O.3    10  TYR10      -0.2866
     27  N         22.2920   -7.4940   24.9990 N.3    12  ARG12      -0.1245
     28  CA        23.3110   -6.6990   25.6730 C.3    12  ARG12       0.1563
     29  C         22.5270   -6.0910   26.8240 C.2    12  ARG12       0.2260
     30  O         21.2950   -6.1150   26.8110 O.2    12  ARG12      -0.2867
     31  CB        23.9280   -5.6150   24.7690 C.3    12  ARG12       0.0307
     32  CG        23.0750   -4.3860   24.4770 C.3    12  ARG12       0.0489
     33  CD        22.1920   -4.5940   23.2610 C.3    12  ARG12       0.2205
     34  NE        21.7790   -3.3230   22.6730 N.pl3  12  ARG12      -0.0865
     35  CZ        20.8590   -3.2050   21.7200 C.cat  12  ARG12       0.5346
     36  NH1       20.2560   -4.2880   21.2420 N.pl3  12  ARG12       0.1354
     37  NH2       20.5290   -2.0030   21.2600 N.pl3  12  ARG12       0.1354
     38  N         19.5270  -11.1380   16.5420 N.3    39  ASP39      -0.1239
     39  CA        20.8410  -11.5400   16.0800 C.3    39  ASP39       0.1674
     40  C         21.2080  -12.5710   17.1500 C.2    39  ASP39       0.2266
     41  O         21.7990  -12.2260   18.1740 O.2    39  ASP39      -0.2867
     42  CB        21.8000  -10.3520   16.1270 C.3    39  ASP39       0.1410
     43  CG        23.2070  -10.7290   15.7450 C.2    39  ASP39       0.3668
     44  OD1       23.4560  -11.9330   15.5530 O.co2  39  ASP39      -0.2456
     45  OD2       24.0640   -9.8230   15.6390 O.co2  39  ASP39      -0.2456
     46  N         24.6920  -12.9100   13.0710 N.3    65  THR65      -0.1218
     47  CA        25.6100  -12.1120   12.2710 C.3    65  THR65       0.1862
     48  C         26.8870  -12.9400   12.1610 C.2    65  THR65       0.2287
     49  O         27.4560  -13.3460   13.1740 O.2    65  THR65      -0.2866
     50  CB        25.9490  -10.7610   12.9510 C.3    65  THR65       0.1770
     51  OG1       24.7470  -10.0080   13.1610 O.3    65  THR65      -0.2211
     52  CG2       26.8980   -9.9470   12.0750 C.3    65  THR65       0.0375
     53  N         32.5770   -2.6310   10.1740 N.3    69  HIS69      -0.1227
     54  CA        31.7760   -3.5160   11.0040 C.3    69  HIS69       0.1737
     55  C         30.2830   -3.2430   10.8570 C.2    69  HIS69       0.2438
     56  O         29.6460   -2.7340   11.7780 O.2    69  HIS69      -0.2733
     57  CB        32.1900   -3.3700   12.4710 C.3    69  HIS69       0.0758
     58  CG        33.6440   -3.6310   12.7180 C.ar   69  HIS69       0.0818
     59  ND1       34.6430   -2.8260   12.2130 N.ar   69  HIS69      -0.2268
     60  CD2       34.2680   -4.6110   13.4150 C.ar   69  HIS69       0.1154
     61  CE1       35.8190   -3.2990   12.5870 C.ar   69  HIS69       0.1986
     62  NE2       35.6190   -4.3810   13.3170 N.ar   69  HIS69      -0.2212
     63  N         29.7190   -3.5720    9.6770 N.am   70  PRO70      -0.2718
     64  CA        28.2880   -3.3720    9.4390 C.3    70  PRO70       0.1535
     65  C         27.4130   -4.0400   10.5090 C.2    70  PRO70       0.2598
     66  O         27.7340   -5.1490   10.9360 O.2    70  PRO70      -0.2715
     67  CB        28.0320   -4.1260    8.1300 C.3    70  PRO70       0.0310
     68  CG        29.0230   -5.2240    8.1330 C.3    70  PRO70       0.0237
     69  CD        30.2030   -4.7100    8.9080 C.3    70  PRO70       0.0939
     70  N         26.3760   -3.3630   10.9300 N.am   71  ARG71      -0.1964
     71  CA        25.5060   -3.8950   11.9680 C.3    71  ARG71       0.1729
     72  C         24.0560   -4.0650   11.5100 C.2    71  ARG71       0.2616
     73  O         23.5010   -3.2060   10.8260 O.2    71  ARG71      -0.2715
     74  CB        25.5940   -2.9840   13.2010 C.3    71  ARG71       0.0348
     75  CG        27.0140   -2.9340   13.7680 C.3    71  ARG71       0.0492
     76  CD        27.3910   -1.5970   14.3920 C.3    71  ARG71       0.2205
     77  NE        27.0390   -1.4950   15.8060 N.pl3  71  ARG71      -0.0865
     78  CZ        27.5770   -0.6110   16.6460 C.cat  71  ARG71       0.5346
     79  NH1       28.4940    0.2470   16.2150 N.pl3  71  ARG71       0.1354
     80  NH2       27.2050   -0.5850   17.9170 N.pl3  71  ARG71       0.1354
     81  N         23.4660   -5.2010   11.8730 N.am   72  GLY72      -0.1955
     82  CA        22.0850   -5.4880   11.5270 C.3    72  GLY72       0.1869
     83  C         21.7770   -5.8370   10.0810 C.2    72  GLY72       0.2309
     84  O         20.6110   -5.9820    9.7220 O.2    72  GLY72      -0.2863
     85  N         20.2070   -9.3690    9.6550 N.3    75  GLN75      -0.1231
     86  CA        18.8850   -9.3070   10.2680 C.3    75  GLN75       0.1698
     87  C         17.9060   -8.5720    9.3500 C.2    75  GLN75       0.2592
     88  O         16.7900   -9.0360    9.1330 O.2    75  GLN75      -0.2718
     89  CB        18.9540   -8.6010   11.6280 C.3    75  GLN75       0.0381
     90  CG        19.8240   -9.3030   12.6860 C.3    75  GLN75       0.0905
     91  CD        21.3000   -9.3270   12.3200 C.2    75  GLN75       0.2608
     92  OE1       21.8240   -8.3700   11.7510 O.2    75  GLN75      -0.2717
     93  NE2       21.9810  -10.4160   12.6640 N.am   75  GLN75      -0.0878
     94  N         18.3200   -7.4320    8.8050 N.am   76  ARG76      -0.1980
     95  CA        17.4380   -6.6810    7.9100 C.3    76  ARG76       0.1597
     96  C         17.1290   -7.4830    6.6420 C.2    76  ARG76       0.2287
     97  O         15.9800   -7.5330    6.2010 O.2    76  ARG76      -0.2864
     98  CB        18.0540   -5.3260    7.5380 C.3    76  ARG76       0.0334
     99  CG        18.2000   -4.3800    8.7130 C.3    76  ARG76       0.0492
    100  CD        18.5590   -2.9700    8.2750 C.3    76  ARG76       0.2205
    101  NE        18.9860   -2.1460    9.4070 N.pl3  76  ARG76      -0.0865
    102  CZ        20.2320   -2.0960    9.8700 C.cat  76  ARG76       0.5346
    103  NH1       21.1850   -2.8190    9.2970 N.pl3  76  ARG76       0.1354
    104  NH2       20.5280   -1.3220   10.9060 N.pl3  76  ARG76       0.1354
    105  N         16.0980    0.8850   13.7290 N.3   109  ASP109     -0.1225
    106  CA        17.0640    0.2910   14.6470 C.3   109  ASP109      0.1805
    107  C         16.4570    0.3840   16.0340 C.2   109  ASP109      0.2598
    108  O         15.5970    1.2300   16.2810 O.2   109  ASP109     -0.2718
    109  CB        18.3830    1.0440   14.5720 C.3   109  ASP109      0.1424
    110  CG        19.0450    0.8840   13.2270 C.2   109  ASP109      0.3668
    111  OD1       19.9060    1.7130   12.8790 O.co2 109  ASP109     -0.2456
    112  OD2       18.6930   -0.0800   12.5170 O.co2 109  ASP109     -0.2456
    113  N         16.9060   -0.4660   16.9500 N.am  110  ASP110     -0.1960
    114  CA        16.2870   -0.4730   18.2650 C.3   110  ASP110      0.1840
    115  C         16.7020    0.5980   19.2620 C.2   110  ASP110      0.2622
    116  O         16.1800    0.6210   20.3730 O.2   110  ASP110     -0.2715
    117  CB        16.4080   -1.8790   18.8890 C.3   110  ASP110      0.1450
    118  CG        17.8380   -2.2590   19.2410 C.2   110  ASP110      0.3671
    119  OD1       18.7940   -1.5760   18.7920 O.co2 110  ASP110     -0.2456
    120  OD2       17.9960   -3.2610   19.9710 O.co2 110  ASP110     -0.2456
    121  N         17.5910    1.5090   18.8740 N.am  111  ASP111     -0.1971
    122  CA        18.0110    2.5660   19.7990 C.3   111  ASP111      0.1709
    123  C         17.6070    3.9950   19.4080 C.2   111  ASP111      0.2293
    124  O         17.8050    4.9380   20.1790 O.2   111  ASP111     -0.2864
    125  CB        19.5320    2.5160   20.0220 C.3   111  ASP111      0.1436
    126  CG        20.3380    2.7250   18.7390 C.2   111  ASP111      0.3671
    127  OD1       21.5660    3.1080   18.9160 O.co2 111  ASP111     -0.2456
    128  OD2       19.7420    2.5010   17.6080 O.co2 111  ASP111     -0.2456
    129  N         20.4550    8.5250    6.8030 N.3   167  ASP167     -0.1225
    130  CA        20.5010    7.4330    7.7500 C.3   167  ASP167      0.1805
    131  C         19.3760    6.4340    7.5160 C.2   167  ASP167      0.2597
    132  O         18.3550    6.7510    6.9010 O.2   167  ASP167     -0.2718
    133  CB        20.4320    7.9500    9.1830 C.3   167  ASP167      0.1424
    134  CG        20.4980    6.8220   10.2000 C.2   167  ASP167      0.3668
    135  OD1       19.4780    6.5490   10.8710 O.co2 167  ASP167     -0.2456
    136  OD2       21.5730    6.1960   10.3000 O.co2 167  ASP167     -0.2456
    137  N         19.5990    5.2170    8.0010 N.am  168  MET168     -0.1979
    138  CA        18.6460    4.1190    7.8980 C.3   168  MET168      0.1605
    139  C         17.2560    4.5700    8.3380 C.2   168  MET168      0.2287
    140  O         16.2420    4.1620    7.7670 O.2   168  MET168     -0.2864
    141  CB        19.1100    2.9700    8.8020 C.3   168  MET168      0.0413
    142  CG        18.3240    1.6800    8.6580 C.3   168  MET168      0.0598
    143  SD        18.6430    0.8870    7.0680 S.3   168  MET168     -0.1393
    144  CE        20.3670    0.3790    7.3040 C.3   168  MET168      0.0692
    145  N         31.5790    1.8420    5.4540 N.3   192  ARG192     -0.1245
    146  CA        30.9060    2.3360    6.6540 C.3   192  ARG192      0.1563
    147  C         30.1490    3.5440    6.0990 C.2   192  ARG192      0.2260
    148  O         30.7660    4.4370    5.5020 O.2   192  ARG192     -0.2867
    149  CB        31.7990    3.3610    7.3570 C.3   192  ARG192      0.0307
    150  CG        31.4280    3.6680    8.7740 C.3   192  ARG192      0.0489
    151  CD        31.7230    2.5850    9.7780 C.3   192  ARG192      0.2205
    152  NE        33.1500    2.3430    9.9660 N.pl3 192  ARG192     -0.0865
    153  CZ        33.6820    1.2860   10.6030 C.cat 192  ARG192      0.5346
    154  NH1       33.0010    0.3070   11.1100 N.pl3 192  ARG192      0.1354
    155  NH2       34.9960    1.2660   10.7170 N.pl3 192  ARG192      0.1354
    156  N         25.7080    1.7860    3.5690 N.3   195  LEU195     -0.1231
    157  CA        24.7650    0.6970    3.7370 C.3   195  LEU195      0.1693
    158  C         23.4090    1.0590    3.1390 C.2   195  LEU195      0.2591
    159  O         22.8320    0.2820    2.3830 O.2   195  LEU195     -0.2718
    160  CB        24.6120    0.3620    5.2250 C.3   195  LEU195      0.0284
    161  CG        23.8660   -0.9240    5.5750 C.3   195  LEU195      0.0019
    162  CD1       24.4910   -2.0950    4.8280 C.3   195  LEU195      0.0001
    163  CD2       23.9220   -1.1510    7.0850 C.3   195  LEU195      0.0001
    164  N         22.9110    2.2470    3.4690 N.am  196  GLU196     -0.1979
    165  CA        21.6150    2.6890    2.9680 C.3   196  GLU196      0.1602
    166  C         21.5980    2.7700    1.4420 C.2   196  GLU196      0.2287
    167  O         20.6520    2.3210    0.8030 O.2   196  GLU196     -0.2864
    168  CB        21.2350    4.0470    3.5790 C.3   196  GLU196      0.0415
    169  CG        21.0100    4.0150    5.0940 C.3   196  GLU196      0.1163
    170  CD        22.3060    4.0470    5.9100 C.2   196  GLU196      0.3649
    171  OE1       23.4060    4.0120    5.3240 O.co2 196  GLU196     -0.2457
    172  OE2       22.2180    4.1110    7.1520 O.co2 196  GLU196     -0.2457
    173  N         18.5620   10.0130   15.8580 N.3   223  HIS223     -0.1241
    174  CA        19.5100    8.9120   15.9300 C.3   223  HIS223      0.1621
    175  C         20.1760    8.8510   17.3100 C.2   223  HIS223      0.2264
    176  O         21.4020    8.9480   17.4410 O.2   223  HIS223     -0.2867
    177  CB        20.5610    9.0750   14.8250 C.3   223  HIS223      0.0745
    178  CG        21.3720    7.8410   14.5750 C.ar  223  HIS223      0.0817
    179  ND1       22.6050    7.6280   15.1540 N.ar  223  HIS223     -0.2268
    180  CD2       21.1220    6.7510   13.8080 C.ar  223  HIS223      0.1154
    181  CE1       23.0800    6.4600   14.7530 C.ar  223  HIS223      0.1986
    182  NE2       22.2000    5.9070   13.9370 N.ar  223  HIS223     -0.2212
    183  N         21.5640    7.3180   20.8110 N.3   225  ARG225     -0.1245
    184  CA        22.3220    6.1260   21.1560 C.3   225  ARG225      0.1563
    185  C         22.3740    6.0750   22.6770 C.2   225  ARG225      0.2260
    186  O         22.4830    7.1080   23.3380 O.2   225  ARG225     -0.2867
    187  CB        23.7290    6.1790   20.5450 C.3   225  ARG225      0.0307
    188  CG        23.7170    5.9020   19.0340 C.3   225  ARG225      0.0489
    189  CD        25.0470    6.1910   18.3500 C.3   225  ARG225      0.2205
    190  NE        26.1600    5.4410   18.9160 N.pl3 225  ARG225     -0.0865
    191  CZ        26.2920    4.1190   18.8600 C.cat 225  ARG225      0.5346
    192  NH1       25.3710    3.3770   18.2560 N.pl3 225  ARG225      0.1354
    193  NH2       27.3530    3.5370   19.4060 N.pl3 225  ARG225      0.1354
@<TRIPOS>BOND
     1   167   166    2
     2   166   165    1
     3   159   158    2
     4   165   164    1
     5   165   168    1
     6   158   164   am
     7   158   157    1
     8   156   157    1
     9   168   169    1
    10   157   160    1
    11   162   161    1
    12   169   170    1
    13   160   161    1
    14   171   170   ar
    15   145   146    1
    16   148   147    2
    17   161   163    1
    18   170   172   ar
    19   147   146    1
    20    97    96    2
    21    96    95    1
    22   146   149    1
    23   129   130    1
    24   132   131    2
    25   143   144    1
    26   143   142    1
    27   149   150    1
    28   131   130    1
    29   131   137   am
    30    98    95    1
    31    98    99    1
    32   130   133    1
    33   140   139    2
    34   138   137    1
    35   138   139    1
    36   138   141    1
    37    95    94    1
    38    67    68    1
    39    67    64    1
    40    68    69    1
    41   100    99    1
    42   100   101    1
    43   142   141    1
    44   150   151    1
    45    94    87   am
    46    69    63    1
    47    88    87    2
    48   133   134    1
    49   103   102    1
    50    87    86    1
    51   101   102    2
    52    64    63    1
    53    64    65    1
    54    85    86    1
    55    63    55   am
    56    84    83    2
    57   151   152    1
    58   102   104    1
    59   152   153    2
    60    83    82    1
    61    53    54    1
    62   134   136   ar
    63   134   135   ar
    64    86    89    1
    65    65    70   am
    66    65    66    2
    67   153   155    1
    68   153   154    1
    69    73    72    2
    70    55    54    1
    71    55    56    2
    72    70    71    1
    73    54    57    1
    74    72    81   am
    75    72    71    1
    76    82    81    1
    77    89    90    1
    78    92    91    2
    79    71    74    1
    80    52    50    1
    81    48    47    1
    82    48    49    2
    83    59    61   ar
    84    59    58   ar
    85    47    50    1
    86    47    46    1
    87    91    93   am
    88    91    90    1
    89    57    58    1
    90   112   110   ar
    91    61    62   ar
    92    58    60   ar
    93     7     6    1
    94     7     1    1
    95   111   110   ar
    96    50    51    1
    97     6     5    1
    98    74    75    1
    99   110   109    1
   100     5     2    1
   101    62    60   ar
   102   105   106    1
   103     1     2    1
   104    75    76    1
   105   180   182   ar
   106   180   178   ar
   107   182   181   ar
   108     2     3    1
   109    76    77    1
   110   109   106    1
   111   178   177    1
   112   178   179   ar
   113   106   107    1
   114   181   179   ar
   115   177   174    1
   116    44    43   ar
   117     3     4    2
   118     3     8   am
   119    45    43   ar
   120    43    42    1
   121    77    78    2
   122   173   174    1
   123   174   175    1
   124   107   108    2
   125   107   113   am
   126    39    42    1
   127    39    38    1
   128    39    40    1
   129    79    78    1
   130     8     9    1
   131    78    80    1
   132   113   114    1
   133    40    41    2
   134   175   176    2
   135   128   126   ar
   136    11    10    2
   137     9    10    1
   138     9    12    1
   139   192   191    1
   140   114   117    1
   141   114   115    1
   142    10    15   am
   143   189   190    1
   144   189   188    1
   145    12    14    1
   146    12    13    1
   147   126   127   ar
   148   126   125    1
   149   119   118   ar
   150   191   190    2
   151   191   193    1
   152   121   115   am
   153   121   122    1
   154   117   118    1
   155   188   187    1
   156    22    24   ar
   157    22    20   ar
   158   118   120   ar
   159   115   116    2
   160    19    20    1
   161    19    16    1
   162    15    16    1
   163   123   122    1
   164   123   124    2
   165    24    25   ar
   166    20    21   ar
   167   122   125    1
   168    16    17    1
   169    25    26    1
   170    25    23   ar
   171    21    23   ar
   172   187   184    1
   173   183   184    1
   174   184   185    1
   175    36    35    1
   176    37    35    1
   177    17    18    2
   178    35    34    2
   179    34    33    1
   180   185   186    2
   181    33    32    1
   182    32    31    1
   183    31    28    1
   184    27    28    1
   185    28    29    1
   186    30    29    2
