@<TRIPOS>MOLECULE
tmp/1kx1F00.pdb
 99 92 0 0 0
SMALL
GASTEIGER

@<TRIPOS>ATOM
      1  N         10.7980   34.9150   72.3580 N.3   110  LYS110     -0.1245
      2  CA        10.7980   33.5910   71.7790 C.3   110  LYS110      0.1561
      3  C         11.0930   32.6810   72.9630 C.2   110  LYS110      0.2260
      4  O         11.4880   33.1570   74.0310 O.2   110  LYS110     -0.2867
      5  CB        11.9090   33.4950   70.7320 C.3   110  LYS110      0.0271
      6  CG        12.0780   32.1380   70.0930 C.3   110  LYS110      0.0035
      7  CD        13.3650   32.0960   69.2870 C.3   110  LYS110      0.0206
      8  CE        14.5850   32.3690   70.1670 C.3   110  LYS110      0.1093
      9  NZ        15.8720   32.3470   69.4050 N.3   110  LYS110     -0.1314
     10  N         14.1060   33.0540   75.7000 N.3   113  GLU113     -0.1245
     11  CA        14.6130   34.3960   75.4390 C.3   113  GLU113      0.1567
     12  C         13.9210   35.4340   76.3340 C.2   113  GLU113      0.2260
     13  O         12.7290   35.3210   76.6270 O.2   113  GLU113     -0.2867
     14  CB        14.4090   34.7540   73.9620 C.3   113  GLU113      0.0388
     15  CG        15.2140   33.9080   72.9860 C.3   113  GLU113      0.1160
     16  CD        16.7210   34.1210   73.1080 C.2   113  GLU113      0.3649
     17  OE1       17.4770   33.4770   72.3420 O.co2 113  GLU113     -0.2457
     18  OE2       17.1530   34.9250   73.9650 O.co2 113  GLU113     -0.2457
     19  N         18.2960   35.8410   77.1460 N.3   115  ASN115     -0.1240
     20  CA        19.2000   34.9090   77.8120 C.3   115  ASN115      0.1653
     21  C         20.6840   35.3040   77.8260 C.2   115  ASN115      0.2266
     22  O         21.5630   34.4490   77.9770 O.2   115  ASN115     -0.2867
     23  CB        19.0350   33.5240   77.1800 C.3   115  ASN115      0.1155
     24  CG        19.4980   33.4760   75.7340 C.2   115  ASN115      0.2627
     25  OD1       19.0190   32.6600   74.9490 O.2   115  ASN115     -0.2716
     26  ND2       20.4470   34.3340   75.3790 N.am  115  ASN115     -0.0877
     27  N         22.9540   35.2460   76.2930 N.3   117  HIS117     -0.1241
     28  CA        23.7960   34.1980   75.7360 C.3   117  HIS117      0.1621
     29  C         25.2300   34.6350   75.4540 C.2   117  HIS117      0.2264
     30  O         25.5070   35.8170   75.2390 O.2   117  HIS117     -0.2867
     31  CB        23.1490   33.6570   74.4500 C.3   117  HIS117      0.0745
     32  CG        24.0290   32.7320   73.6640 C.ar  117  HIS117      0.0817
     33  ND1       25.1280   33.1710   72.9560 N.ar  117  HIS117     -0.2268
     34  CD2       23.9770   31.3900   73.4860 C.ar  117  HIS117      0.1154
     35  CE1       25.7160   32.1390   72.3770 C.ar  117  HIS117      0.1986
     36  NE2       25.0370   31.0470   72.6820 N.ar  117  HIS117     -0.2212
     37  N         24.2060   39.3750   75.8570 N.3   121  GLU121     -0.1245
     38  CA        23.2850   39.9510   74.8870 C.3   121  GLU121      0.1567
     39  C         22.4170   41.0120   75.5560 C.2   121  GLU121      0.2260
     40  O         21.5290   40.6920   76.3510 O.2   121  GLU121     -0.2867
     41  CB        22.4250   38.8340   74.2840 C.3   121  GLU121      0.0388
     42  CG        23.2370   37.9060   73.3820 C.3   121  GLU121      0.1160
     43  CD        22.4610   36.7130   72.8520 C.2   121  GLU121      0.3649
     44  OE1       22.9280   36.1350   71.8560 O.co2 121  GLU121     -0.2457
     45  OE2       21.4100   36.3420   73.4200 O.co2 121  GLU121     -0.2457
     46  N         16.0240   42.1770   69.1480 N.3   125  THR125     -0.1218
     47  CA        15.7160   42.2400   67.7240 C.3   125  THR125      0.1862
     48  C         14.4760   41.4230   67.4380 C.2   125  THR125      0.2287
     49  O         14.3120   40.3200   67.9570 O.2   125  THR125     -0.2866
     50  CB        16.8430   41.6840   66.8330 C.3   125  THR125      0.1770
     51  OG1       16.8930   40.2600   66.9520 O.3   125  THR125     -0.2211
     52  CG2       18.1790   42.2740   67.2320 C.3   125  THR125      0.0375
     53  N         12.2220   39.3460   64.7730 N.3   127  VAL127     -0.1245
     54  CA        12.5460   38.5400   63.5890 C.3   127  VAL127      0.1561
     55  C         11.3370   38.1800   62.7130 C.2   127  VAL127      0.2260
     56  O         10.1900   38.4570   63.0780 O.2   127  VAL127     -0.2867
     57  CB        13.2500   37.2230   63.9950 C.3   127  VAL127      0.0252
     58  CG1       14.3800   37.5110   64.9790 C.3   127  VAL127      0.0019
     59  CG2       12.2360   36.2570   64.5900 C.3   127  VAL127      0.0019
     60  N         14.3480   38.2310   70.2080 N.3   133  ASN133     -0.1225
     61  CA        15.5050   37.5090   70.6890 C.3   133  ASN133      0.1785
     62  C         16.5010   38.5500   71.1340 C.2   133  ASN133      0.2597
     63  O         16.7550   39.5100   70.4080 O.2   133  ASN133     -0.2718
     64  CB        16.1430   36.6760   69.5820 C.3   133  ASN133      0.1169
     65  CG        17.5600   36.2360   69.9310 C.2   133  ASN133      0.2627
     66  OD1       17.7910   35.6300   70.9770 O.2   133  ASN133     -0.2716
     67  ND2       18.5140   36.5440   69.0590 N.am  133  ASN133     -0.0877
     68  N         17.0550   38.3810   72.3280 N.am  134  ASP134     -0.1960
     69  CA        18.0520   39.3240   72.8030 C.3   134  ASP134      0.1840
     70  C         19.3330   39.0000   72.0390 C.2   134  ASP134      0.2622
     71  O         19.5720   37.8450   71.6980 O.2   134  ASP134     -0.2715
     72  CB        18.2700   39.1800   74.3200 C.3   134  ASP134      0.1450
     73  CG        18.8900   37.8430   74.7120 C.2   134  ASP134      0.3671
     74  OD1       19.5170   37.7870   75.7890 O.co2 134  ASP134     -0.2456
     75  OD2       18.7460   36.8520   73.9610 O.co2 134  ASP134     -0.2456
     76  N         20.1460   40.0040   71.7440 N.am  135  ILE135     -0.1963
     77  CA        21.3750   39.7390   71.0140 C.3   135  ILE135      0.1727
     78  C         22.4100   40.8380   71.1880 C.2   135  ILE135      0.2616
     79  O         22.1080   41.9150   71.6950 O.2   135  ILE135     -0.2715
     80  CB        21.0990   39.5230   69.5000 C.3   135  ILE135      0.0290
     81  CG1       22.2990   38.8220   68.8570 C.3   135  ILE135      0.0022
     82  CG2       20.8220   40.8550   68.8130 C.3   135  ILE135      0.0023
     83  CD1       22.0380   38.2960   67.4650 C.3   135  ILE135      0.0001
     84  N         23.6360   40.5560   70.7670 N.am  136  SER136     -0.1950
     85  CA        24.7070   41.5260   70.9000 C.3   136  SER136      0.1924
     86  C         24.3920   42.8230   70.1760 C.2   136  SER136      0.2314
     87  O         23.9980   42.8190   69.0070 O.2   136  SER136     -0.2863
     88  CB        26.0170   40.9580   70.3670 C.3   136  SER136      0.2116
     89  OG        27.0430   41.9280   70.4640 O.3   136  SER136     -0.2180
     90  N         21.8940   44.9010   62.3520 N.3   141  HIS141     -0.1241
     91  CA        20.5570   44.4870   61.9450 C.3   141  HIS141      0.1621
     92  C         19.8370   45.6550   61.2860 C.2   141  HIS141      0.2264
     93  O         20.3270   46.7860   61.3100 O.2   141  HIS141     -0.2867
     94  CB        19.7660   43.9870   63.1500 C.3   141  HIS141      0.0745
     95  CG        20.2280   42.6580   63.6570 C.ar  141  HIS141      0.0817
     96  ND1       21.5610   42.3540   63.8410 N.ar  141  HIS141     -0.2268
     97  CD2       19.5350   41.5540   64.0230 C.ar  141  HIS141      0.1154
     98  CE1       21.6680   41.1200   64.2980 C.ar  141  HIS141      0.1986
     99  NE2       20.4530   40.6120   64.4170 N.ar  141  HIS141     -0.2212
@<TRIPOS>BOND
     1    92    93    2
     2    92    91    1
     3    91    90    1
     4    91    94    1
     5    55    56    2
     6    55    54    1
     7    94    95    1
     8    54    57    1
     9    54    53    1
    10    95    96   ar
    11    95    97   ar
    12    96    98   ar
    13    57    59    1
    14    57    58    1
    15    97    99   ar
    16    98    99   ar
    17    50    51    1
    18    50    52    1
    19    50    47    1
    20    48    47    1
    21    48    49    2
    22    83    81    1
    23    47    46    1
    24    82    80    1
    25    81    80    1
    26    87    86    2
    27    67    65   am
    28     7     6    1
    29     7     8    1
    30     9     8    1
    31    80    77    1
    32    64    65    1
    33    64    61    1
    34    65    66    2
    35     6     5    1
    36    86    85    1
    37    60    61    1
    38    88    89    1
    39    88    85    1
    40    63    62    2
    41    61    62    1
    42     5     2    1
    43    84    85    1
    44    84    78   am
    45    77    78    1
    46    77    76    1
    47    62    68   am
    48    78    79    2
    49    71    70    2
    50    76    70   am
    51     2     1    1
    52     2     3    1
    53    44    43   ar
    54    70    69    1
    55    68    69    1
    56    17    16   ar
    57    35    36   ar
    58    35    33   ar
    59    36    34   ar
    60    69    72    1
    61    43    42    1
    62    43    45   ar
    63    33    32   ar
    64     3     4    2
    65    15    16    1
    66    15    14    1
    67    16    18   ar
    68    42    41    1
    69    34    32   ar
    70    32    31    1
    71    75    73   ar
    72    14    11    1
    73    41    38    1
    74    72    73    1
    75    31    28    1
    76    73    74   ar
    77    38    39    1
    78    38    37    1
    79    25    24    2
    80    30    29    2
    81    26    24   am
    82    11    10    1
    83    11    12    1
    84    29    28    1
    85    39    40    2
    86    24    23    1
    87    28    27    1
    88    12    13    2
    89    19    20    1
    90    23    20    1
    91    20    21    1
    92    21    22    2
