@<TRIPOS>MOLECULE
tmp/1kx7A00.pdb
 198 188 0 0 0
SMALL
GASTEIGER

@<TRIPOS>ATOM
      1  N          6.5710   -1.1740   -8.1970 N.3     9  ILE9       -0.1245
      2  CA         5.1310   -1.2830   -8.0080 C.3     9  ILE9        0.1561
      3  C          4.6240   -0.1270   -7.1430 C.2     9  ILE9        0.2260
      4  O          3.7240    0.5870   -7.5870 O.2     9  ILE9       -0.2867
      5  CB         4.7800   -2.6710   -7.4390 C.3     9  ILE9        0.0252
      6  CG1        4.7840   -3.7110   -8.5730 C.3     9  ILE9        0.0019
      7  CG2        3.4420   -2.7070   -6.6830 C.3     9  ILE9        0.0019
      8  CD1        3.5180   -3.6780   -9.4440 C.3     9  ILE9        0.0001
      9  N          2.6150    2.9590   -8.7220 N.3    13  ALA13      -0.1231
     10  CA         1.1890    2.8290   -8.3770 C.3    13  ALA13       0.1694
     11  C          0.8100    3.6400   -7.1320 C.2    13  ALA13       0.2592
     12  O          0.0710    4.6220   -7.2230 O.2    13  ALA13      -0.2718
     13  CB         0.8040    1.3510   -8.2160 C.3    13  ALA13       0.0304
     14  N          1.3380    3.2740   -5.9610 N.am   14  CYS14      -0.1970
     15  CA         1.1200    3.9630   -4.6870 C.3    14  CYS14       0.1712
     16  C          1.9260    5.2880   -4.6210 C.2    14  CYS14       0.2296
     17  O          2.4870    5.6610   -3.5930 O.2    14  CYS14      -0.2864
     18  CB         1.4420    3.0300   -3.5270 C.3    14  CYS14       0.0983
     19  SG         1.3880    1.2380   -3.8600 S.3    14  CYS14      -0.0798
     20  N          0.8960    8.4490   -6.2700 N.3    16  VAL16      -0.1231
     21  CA         0.0680    9.5760   -6.6610 C.3    16  VAL16       0.1692
     22  C         -0.4970   10.2300   -5.3950 C.2    16  VAL16       0.2592
     23  O         -0.4320   11.4410   -5.2050 O.2    16  VAL16      -0.2718
     24  CB        -1.0190    9.0340   -7.6010 C.3    16  VAL16       0.0266
     25  CG1       -1.8450   10.1970   -8.1330 C.3    16  VAL16       0.0020
     26  CG2       -0.4150    8.2670   -8.7890 C.3    16  VAL16       0.0020
     27  N         -1.0110    9.3780   -4.5090 N.am   17  CYS17      -0.1956
     28  CA        -1.5690    9.7110   -3.2120 C.3    17  CYS17       0.1843
     29  C         -0.5010    9.6570   -2.1100 C.2    17  CYS17       0.2625
     30  O         -0.1700   10.6710   -1.4970 O.2    17  CYS17      -0.2714
     31  CB        -2.6640    8.7080   -2.9720 C.3    17  CYS17       0.0997
     32  SG        -4.1920    9.1890   -3.8200 S.3    17  CYS17      -0.0797
     33  N          0.0510    8.4680   -1.8640 N.am   18  HIS18      -0.1973
     34  CA         0.8480    8.1540   -0.6780 C.3    18  HIS18       0.1656
     35  C          2.2490    8.7790   -0.6850 C.2    18  HIS18       0.2291
     36  O          2.8590    8.9540    0.3710 O.2    18  HIS18      -0.2864
     37  CB         0.9800    6.6360   -0.6080 C.3    18  HIS18       0.0771
     38  CG        -0.2450    5.9300   -0.1130 C.ar   18  HIS18       0.0820
     39  ND1       -0.2850    5.2520    1.0680 N.ar   18  HIS18      -0.2267
     40  CD2       -1.3660    5.6030   -0.8230 C.ar   18  HIS18       0.1154
     41  CE1       -1.3820    4.4850    1.0630 C.ar   18  HIS18       0.1986
     42  NE2       -2.1050    4.6900   -0.0550 N.ar   18  HIS18      -0.2212
     43  N         -5.2100   13.2930   -1.2690 N.3    23  ALA23      -0.1231
     44  CA        -6.5050   12.6480   -1.0280 C.3    23  ALA23       0.1694
     45  C         -6.6930   12.1750    0.4270 C.2    23  ALA23       0.2593
     46  O         -7.5380   11.3290    0.7060 O.2    23  ALA23      -0.2718
     47  CB        -6.7260   11.5220   -2.0460 C.3    23  ALA23       0.0304
     48  N         -5.8960   12.7200    1.3530 N.am   24  GLY24      -0.1942
     49  CA        -5.8400   12.2980    2.7510 C.3    24  GLY24       0.2014
     50  C         -5.0270   11.0130    2.9630 C.2    24  GLY24       0.2639
     51  O         -5.1850   10.3490    3.9830 O.2    24  GLY24      -0.2714
     52  N         -4.1740   10.6310    2.0050 N.am   25  ALA25      -0.1963
     53  CA        -3.4760    9.3520    2.0420 C.3    25  ALA25       0.1713
     54  C         -2.3700    9.2790    3.1160 C.2    25  ALA25       0.2458
     55  O         -1.6910   10.2720    3.3840 O.2    25  ALA25      -0.2730
     56  CB        -2.9460    9.0430    0.6420 C.3    25  ALA25       0.0333
     57  N         -2.1700    8.0960    3.7210 N.am   26  PRO26      -0.2727
     58  CA        -1.2170    7.8570    4.7970 C.3    26  PRO26       0.1402
     59  C          0.2000    7.7690    4.2310 C.2    26  PRO26       0.2269
     60  O          0.4460    7.0950    3.2240 O.2    26  PRO26      -0.2865
     61  CB        -1.6600    6.5310    5.4090 C.3    26  PRO26       0.0296
     62  CG        -2.2020    5.7720    4.2050 C.3    26  PRO26       0.0237
     63  CD        -2.8830    6.8720    3.4030 C.3    26  PRO26       0.0939
     64  N          1.2930    6.1940   11.4810 N.3    33  ASP33      -0.1239
     65  CA         0.3690    5.8990   10.3880 C.3    33  ASP33       0.1674
     66  C          0.3090    4.3700   10.1600 C.2    33  ASP33       0.2266
     67  O         -0.7070    3.8010    9.7680 O.2    33  ASP33      -0.2867
     68  CB         0.9460    6.6740    9.1880 C.3    33  ASP33       0.1410
     69  CG        -0.0080    7.3710    8.2510 C.2    33  ASP33       0.3668
     70  OD1       -1.2150    7.0780    8.2940 O.co2  33  ASP33      -0.2456
     71  OD2        0.5450    8.2020    7.4900 O.co2  33  ASP33      -0.2456
     72  N         -1.2110    1.6580   13.9610 N.3    36  PRO36      -0.2102
     73  CA        -2.5730    1.1350   14.0740 C.3    36  PRO36       0.1504
     74  C         -2.9020    0.0580   13.0290 C.2    36  PRO36       0.2575
     75  O         -3.9640   -0.5610   13.0990 O.2    36  PRO36      -0.2718
     76  CB        -3.4880    2.3560   13.9290 C.3    36  PRO36       0.0282
     77  CG        -2.6780    3.2930   13.0370 C.3    36  PRO36       0.0208
     78  CD        -1.2520    3.0470   13.5240 C.3    36  PRO36       0.0893
     79  N         -2.0110   -0.1750   12.0610 N.am   37  ARG37      -0.1980
     80  CA        -2.1480   -1.2020   11.0390 C.3    37  ARG37       0.1597
     81  C         -1.4340   -2.4780   11.5110 C.2    37  ARG37       0.2287
     82  O         -2.0610   -3.5320   11.6600 O.2    37  ARG37      -0.2864
     83  CB        -1.6330   -0.6190    9.7110 C.3    37  ARG37       0.0334
     84  CG        -2.3800    0.6690    9.3330 C.3    37  ARG37       0.0492
     85  CD        -3.8340    0.3680    8.9590 C.3    37  ARG37       0.2205
     86  NE        -4.7780    1.2030    9.7220 N.pl3  37  ARG37      -0.0865
     87  CZ        -6.1090    1.0770    9.7020 C.cat  37  ARG37       0.5346
     88  NH1       -6.6840    0.1360    8.9650 N.pl3  37  ARG37       0.1354
     89  NH2       -6.8780    1.9040   10.3980 N.pl3  37  ARG37       0.1354
     90  N         -4.2720   -5.3390    5.2400 N.3    45  LEU45      -0.1245
     91  CA        -4.1200   -4.2160    4.3420 C.3    45  LEU45       0.1561
     92  C         -4.0280   -4.6750    2.8850 C.2    45  LEU45       0.2260
     93  O         -4.7660   -4.1470    2.0600 O.2    45  LEU45      -0.2867
     94  CB        -2.9070   -3.4080    4.7950 C.3    45  LEU45       0.0270
     95  CG        -3.1010   -2.6870    6.1480 C.3    45  LEU45       0.0019
     96  CD1       -4.5360   -2.1810    6.3500 C.3    45  LEU45       0.0001
     97  CD2       -2.6710   -3.5540    7.3390 C.3    45  LEU45       0.0001
     98  N         -7.3750   -5.0070    1.7910 N.3    48  SER48      -0.1202
     99  CA        -8.0640   -3.7270    1.6330 C.3    48  SER48       0.2020
    100  C         -7.6540   -3.0610    0.3130 C.2    48  SER48       0.2618
    101  O         -8.4840   -2.5540   -0.4380 O.2    48  SER48      -0.2717
    102  CB        -7.7620   -2.8170    2.8350 C.3    48  SER48       0.2103
    103  OG        -8.1400   -3.4370    4.0550 O.3    48  SER48      -0.2182
    104  N         -6.3560   -3.1070    0.0160 N.am   49  VAL49      -0.1979
    105  CA        -5.7750   -2.5640   -1.2010 C.3    49  VAL49       0.1595
    106  C         -6.2570   -3.3180   -2.4410 C.2    49  VAL49       0.2287
    107  O         -6.7400   -2.6980   -3.3910 O.2    49  VAL49      -0.2864
    108  CB        -4.2440   -2.5110   -1.0540 C.3    49  VAL49       0.0276
    109  CG1       -3.6240   -3.8890   -1.0540 C.3    49  VAL49       0.0022
    110  CG2       -3.5280   -1.8180   -2.1910 C.3    49  VAL49       0.0022
    111  N        -10.0520    0.6860   -1.2940 N.3    53  LEU53      -0.1245
    112  CA       -10.6530    1.6010   -0.3350 C.3    53  LEU53       0.1561
    113  C        -11.4850    2.6720   -1.0800 C.2    53  LEU53       0.2260
    114  O        -11.6910    2.5870   -2.2830 O.2    53  LEU53      -0.2867
    115  CB        -9.5110    2.1960    0.4980 C.3    53  LEU53       0.0270
    116  CG        -9.8900    2.4100    1.9700 C.3    53  LEU53       0.0019
    117  CD1       -9.5920    1.1470    2.7850 C.3    53  LEU53       0.0001
    118  CD2       -9.0820    3.5780    2.5300 C.3    53  LEU53       0.0001
    119  N        -11.1080    6.1520   -1.7030 N.3    55  ALA55      -0.1231
    120  CA       -10.2370    6.9260   -2.5670 C.3    55  ALA55       0.1694
    121  C         -9.2650    6.0410   -3.3630 C.2    55  ALA55       0.2592
    122  O         -8.4290    6.5690   -4.0930 O.2    55  ALA55      -0.2718
    123  CB        -9.4790    7.8890   -1.6560 C.3    55  ALA55       0.0304
    124  N         -9.3470    4.7100   -3.2080 N.am   56  MET56      -0.1966
    125  CA        -8.4800    3.7700   -3.9280 C.3    56  MET56       0.1721
    126  C         -9.2370    2.9600   -4.9990 C.2    56  MET56       0.2458
    127  O        -10.3560    2.5160   -4.7610 O.2    56  MET56      -0.2730
    128  CB        -7.8190    2.8330   -2.9150 C.3    56  MET56       0.0427
    129  CG        -6.5200    3.4520   -2.4070 C.3    56  MET56       0.0599
    130  SD        -5.8670    2.7310   -0.8860 S.3    56  MET56      -0.1393
    131  CE        -5.5160    1.0620   -1.4500 C.3    56  MET56       0.0692
    132  N         -8.6380    2.7110   -6.1740 N.am   57  PRO57      -0.2727
    133  CA        -9.2520    1.8540   -7.1780 C.3    57  PRO57       0.1402
    134  C         -9.2540    0.3850   -6.7120 C.2    57  PRO57       0.2269
    135  O         -8.3500   -0.0310   -5.9820 O.2    57  PRO57      -0.2865
    136  CB        -8.4200    2.0630   -8.4460 C.3    57  PRO57       0.0296
    137  CG        -7.0410    2.4310   -7.9020 C.3    57  PRO57       0.0237
    138  CD        -7.3320    3.1800   -6.6050 C.3    57  PRO57       0.0939
    139  N         -5.7530   -1.8210   -6.0060 N.3    60  GLY60      -0.1210
    140  CA        -4.5680   -0.9800   -5.8020 C.3    60  GLY60       0.1956
    141  C         -3.9220   -0.4670   -7.0960 C.2    60  GLY60       0.2612
    142  O         -2.7040   -0.3190   -7.1740 O.2    60  GLY60      -0.2717
    143  N         -4.7470   -0.2110   -8.1170 N.am   61  MET61      -0.1965
    144  CA        -4.3450    0.2070   -9.4590 C.3    61  MET61       0.1736
    145  C         -3.4360   -0.8270  -10.1600 C.2    61  MET61       0.2616
    146  O         -2.5950   -0.4870  -10.9950 O.2    61  MET61      -0.2715
    147  CB        -3.7430    1.6220   -9.4090 C.3    61  MET61       0.0427
    148  CG        -3.9930    2.3560  -10.7340 C.3    61  MET61       0.0599
    149  SD        -3.0470    3.8780  -10.9950 S.3    61  MET61      -0.1393
    150  CE        -4.2750    5.1250  -10.5660 C.3    61  MET61       0.0692
    151  N         -3.6260   -2.1040   -9.8170 N.am   62  CYS62      -0.1968
    152  CA        -2.8850   -3.2570  -10.3150 C.3    62  CYS62       0.1712
    153  C         -3.8170   -4.1760  -11.1320 C.2    62  CYS62       0.2296
    154  O         -4.9830   -3.8540  -11.3430 O.2    62  CYS62      -0.2864
    155  CB        -2.2430   -3.9410   -9.0930 C.3    62  CYS62       0.0983
    156  SG        -0.4410   -3.9040   -9.0340 S.3    62  CYS62      -0.0798
    157  N          2.9780   -7.5310   -4.1120 N.3    70  TYR70      -0.1241
    158  CA         2.0350   -6.6690   -3.4070 C.3    70  TYR70       0.1605
    159  C          2.5010   -6.4000   -1.9650 C.2    70  TYR70       0.2264
    160  O          2.6480   -5.2600   -1.5290 O.2    70  TYR70      -0.2867
    161  CB         0.6430   -7.3330   -3.4450 C.3    70  TYR70       0.0534
    162  CG        -0.4970   -6.4630   -3.9290 C.ar   70  TYR70      -0.0201
    163  CD1       -0.6100   -5.1290   -3.4970 C.ar   70  TYR70      -0.0009
    164  CD2       -1.4630   -7.0020   -4.8030 C.ar   70  TYR70      -0.0009
    165  CE1       -1.6540   -4.3280   -3.9810 C.ar   70  TYR70       0.0417
    166  CE2       -2.5170   -6.2000   -5.2710 C.ar   70  TYR70       0.0417
    167  CZ        -2.6130   -4.8680   -4.8480 C.ar   70  TYR70       0.1957
    168  OH        -3.6390   -4.0880   -5.2660 O.3    70  TYR70      -0.2866
    169  N          5.6750   -4.5450   -1.7460 N.3    73  ALA73      -0.1231
    170  CA         5.4440   -3.1150   -1.9710 C.3    73  ALA73       0.1694
    171  C          5.0040   -2.4110   -0.6780 C.2    73  ALA73       0.2591
    172  O          5.5080   -1.3420   -0.3360 O.2    73  ALA73      -0.2718
    173  CB         4.4420   -2.9190   -3.1120 C.3    73  ALA73       0.0304
    174  N          4.0970   -3.0420    0.0710 N.am   74  ILE74      -0.1980
    175  CA         3.7260   -2.6220    1.4260 C.3    74  ILE74       0.1595
    176  C          4.9350   -2.6420    2.3920 C.2    74  ILE74       0.2287
    177  O          5.1490   -1.7080    3.1680 O.2    74  ILE74      -0.2864
    178  CB         2.5340   -3.4890    1.8960 C.3    74  ILE74       0.0276
    179  CG1        1.1760   -2.9360    1.4220 C.3    74  ILE74       0.0022
    180  CG2        2.5170   -3.7240    3.4110 C.3    74  ILE74       0.0022
    181  CD1        0.6430   -3.6700    0.1910 C.3    74  ILE74       0.0001
    182  N          7.8800    0.1070    2.2900 N.3    77  MET77      -0.1245
    183  CA         7.5830    1.2610    3.1190 C.3    77  MET77       0.1570
    184  C          7.7890    0.9520    4.6090 C.2    77  MET77       0.2261
    185  O          8.4000    1.7350    5.3350 O.2    77  MET77      -0.2867
    186  CB         6.1430    1.6900    2.8360 C.3    77  MET77       0.0387
    187  CG         5.9820    2.3300    1.4460 C.3    77  MET77       0.0595
    188  SD         4.3340    2.9620    1.0100 S.3    77  MET77      -0.1393
    189  CE         3.4660    1.4650    0.4870 C.3    77  MET77       0.0692
    190  N          0.5430   -0.9020    5.7700 N.3    81  LYS81      -0.1245
    191  CA        -0.3030   -0.1900    4.8130 C.3    81  LYS81       0.1561
    192  C          0.3750    0.1550    3.4720 C.2    81  LYS81       0.2260
    193  O         -0.1080    1.0900    2.7920 O.2    81  LYS81      -0.2867
    194  CB        -0.9630    1.0240    5.5000 C.3    81  LYS81       0.0271
    195  CG         0.0170    1.9640    6.2270 C.3    81  LYS81       0.0035
    196  CD        -0.0340    3.4180    5.7530 C.3    81  LYS81       0.0206
    197  CE         0.5170    3.5080    4.3240 C.3    81  LYS81       0.1093
    198  NZ         1.3210    4.7230    4.0820 N.3    81  LYS81      -0.1314
@<TRIPOS>BOND
     1   154   153    2
     2   153   152    1
     3   149   148    1
     4   149   150    1
     5   146   145    2
     6   148   147    1
     7   152   151    1
     8   152   155    1
     9   145   151   am
    10   145   144    1
    11   144   147    1
    12   144   143    1
    13     8     6    1
    14   155   156    1
    15    26    24    1
    16     9    10    1
    17     6     5    1
    18   136   137    1
    19   136   133    1
    20    10    13    1
    21    10    11    1
    22     1     2    1
    23    25    24    1
    24   143   141   am
    25     2     5    1
    26     2     3    1
    27   137   138    1
    28    24    21    1
    29     4     3    2
    30     5     7    1
    31    12    11    2
    32   133   134    1
    33   133   132    1
    34   142   141    2
    35    11    14   am
    36   141   140    1
    37   134   135    2
    38    21    20    1
    39    21    22    1
    40   138   132    1
    41   132   126   am
    42   139   140    1
    43    14    15    1
    44    22    23    2
    45    22    27   am
    46   166   167   ar
    47   166   164   ar
    48   168   167    1
    49   126   127    2
    50   126   125    1
    51   167   165   ar
    52   164   162   ar
    53    15    16    1
    54    15    18    1
    55    16    17    2
    56    27    28    1
    57   157   158    1
    58   122   121    2
    59   165   163   ar
    60   162   163   ar
    61   162   161    1
    62   125   124    1
    63   125   128    1
    64    19    18    1
    65    32    31    1
    66   161   158    1
    67   158   159    1
    68   107   106    2
    69   121   124   am
    70   121   120    1
    71    28    31    1
    72    28    29    1
    73   173   170    1
    74   128   129    1
    75   120   119    1
    76   120   123    1
    77   106   105    1
    78   129   130    1
    79   114   113    2
    80   110   108    1
    81    29    33   am
    82    29    30    2
    83    47    44    1
    84   170   169    1
    85   170   171    1
    86   159   160    2
    87    33    34    1
    88   131   130    1
    89   111   112    1
    90    43    44    1
    91   105   108    1
    92   105   104    1
    93   113   112    1
    94   109   108    1
    95    44    45    1
    96    40    38   ar
    97    40    42   ar
    98    35    34    1
    99    35    36    2
   100    34    37    1
   101   171   172    2
   102   171   174   am
   103    37    38    1
   104   101   100    2
   105   112   115    1
   106    38    39   ar
   107    42    41   ar
   108   104   100   am
   109   174   175    1
   110   181   179    1
   111   100    99    1
   112    45    46    2
   113    45    48   am
   114   189   188    1
   115   115   116    1
   116    56    53    1
   117   188   187    1
   118    41    39   ar
   119    48    49    1
   120   179   178    1
   121   175   178    1
   122   175   176    1
   123   187   186    1
   124    99    98    1
   125    99   102    1
   126   178   180    1
   127   116   118    1
   128   116   117    1
   129    52    53    1
   130    52    50   am
   131    53    54    1
   132    93    92    2
   133   182   183    1
   134   176   177    2
   135    49    50    1
   136   193   192    2
   137   102   103    1
   138   186   183    1
   139    92    91    1
   140    50    51    2
   141    54    55    2
   142    54    57   am
   143   183   184    1
   144    60    59    2
   145    63    57    1
   146    63    62    1
   147   192   191    1
   148    57    58    1
   149   198   197    1
   150    62    61    1
   151    59    58    1
   152   197   196    1
   153    91    94    1
   154    91    90    1
   155   184   185    2
   156    94    95    1
   157    58    61    1
   158   191   194    1
   159   191   190    1
   160   194   195    1
   161   196   195    1
   162    95    96    1
   163    95    97    1
   164    71    69   ar
   165    69    70   ar
   166    69    68    1
   167    85    84    1
   168    85    86    1
   169    88    87    1
   170    68    65    1
   171    84    83    1
   172    87    86    2
   173    87    89    1
   174    83    80    1
   175    67    66    2
   176    66    65    1
   177    65    64    1
   178    80    81    1
   179    80    79    1
   180    81    82    2
   181    79    74   am
   182    74    75    2
   183    74    73    1
   184    77    78    1
   185    77    76    1
   186    78    72    1
   187    76    73    1
   188    72    73    1
