@<TRIPOS>MOLECULE
tmp/1kxhA00.pdb
 178 174 0 0 0
SMALL
GASTEIGER

@<TRIPOS>ATOM
      1  N         11.9800   37.7760   14.7560 N.3    46  TRP46      -0.1227
      2  CA        12.8780   36.6350   14.5490 C.3    46  TRP46       0.1737
      3  C         13.5810   36.7190   13.1990 C.2    46  TRP46       0.2595
      4  O         14.7240   36.2950   13.0830 O.2    46  TRP46      -0.2718
      5  CB        12.1440   35.2850   14.6430 C.3    46  TRP46       0.0564
      6  CG        11.1510   35.0430   13.5160 C.ar   46  TRP46       0.0003
      7  CD1        9.8310   35.3590   13.5270 C.ar   46  TRP46       0.0946
      8  CD2       11.4210   34.4950   12.2040 C.ar   46  TRP46       0.0152
      9  NE1        9.2580   35.0610   12.3130 N.ar   46  TRP46      -0.2442
     10  CE2       10.2050   34.5260   11.4830 C.ar   46  TRP46       0.0810
     11  CE3       12.5690   33.9880   11.5720 C.ar   46  TRP46       0.0012
     12  CZ2       10.0960   34.0670   10.1560 C.ar   46  TRP46       0.0191
     13  CZ3       12.4620   33.5290   10.2460 C.ar   46  TRP46       0.0001
     14  CH2       11.2310   33.5740    9.5570 C.ar   46  TRP46       0.0015
     15  N         12.9000   37.2560   12.1820 N.am   47  TRP47      -0.1976
     16  CA        13.4840   37.3590   10.8380 C.3    47  TRP47       0.1640
     17  C         14.5950   38.3890   10.6040 C.2    47  TRP47       0.2290
     18  O         15.1080   38.4940    9.4880 O.2    47  TRP47      -0.2864
     19  CB        12.4040   37.4710    9.7430 C.3    47  TRP47       0.0576
     20  CG        11.3070   38.5050    9.9500 C.ar   47  TRP47       0.0006
     21  CD1        9.9910   38.2470   10.2120 C.ar   47  TRP47       0.0946
     22  CD2       11.4200   39.9410    9.8570 C.ar   47  TRP47       0.0152
     23  NE1        9.2810   39.4230   10.2910 N.ar   47  TRP47      -0.2442
     24  CE2       10.1260   40.4770   10.0740 C.ar   47  TRP47       0.0810
     25  CE3       12.4870   40.8260    9.6100 C.ar   47  TRP47       0.0012
     26  CZ2        9.8660   41.8580   10.0510 C.ar   47  TRP47       0.0191
     27  CZ3       12.2290   42.1980    9.5880 C.ar   47  TRP47       0.0001
     28  CH2       10.9260   42.6980    9.8070 C.ar   47  TRP47       0.0015
     29  N         17.9100   37.1320    9.2230 N.3    50  TYR50      -0.1227
     30  CA        18.0960   36.8460    7.8080 C.3    50  TYR50       0.1736
     31  C         18.4290   38.0600    6.9230 C.2    50  TYR50       0.2595
     32  O         18.3200   37.9980    5.6940 O.2    50  TYR50      -0.2718
     33  CB        16.9040   36.0380    7.2940 C.3    50  TYR50       0.0548
     34  CG        16.8560   34.6740    7.9560 C.ar   50  TYR50      -0.0200
     35  CD1       16.1930   34.4850    9.1700 C.ar   50  TYR50      -0.0009
     36  CD2       17.5770   33.6030    7.4260 C.ar   50  TYR50      -0.0009
     37  CE1       16.2650   33.2620    9.8480 C.ar   50  TYR50       0.0417
     38  CE2       17.6610   32.3890    8.0880 C.ar   50  TYR50       0.0417
     39  CZ        17.0080   32.2230    9.2960 C.ar   50  TYR50       0.1957
     40  OH        17.1300   31.0280    9.9560 O.3    50  TYR50      -0.2866
     41  N         18.8500   39.1490    7.5710 N.am   51  GLN51      -0.1979
     42  CA        19.2660   40.3890    6.9050 C.3    51  GLN51       0.1601
     43  C         20.6530   40.7660    7.4640 C.2    51  GLN51       0.2287
     44  O         20.7700   41.5080    8.4370 O.2    51  GLN51      -0.2864
     45  CB        18.2610   41.5170    7.1520 C.3    51  GLN51       0.0394
     46  CG        16.8620   41.1860    6.6860 C.3    51  GLN51       0.0908
     47  CD        16.0040   42.4090    6.5150 C.2    51  GLN51       0.2608
     48  OE1       16.4770   43.4370    6.0280 O.2    51  GLN51      -0.2717
     49  NE2       14.7280   42.3030    6.8800 N.am   51  GLN51      -0.0878
     50  N         21.9020   36.9130   -0.0860 N.3    89  HIS89      -0.1241
     51  CA        21.6500   38.3430   -0.0080 C.3    89  HIS89       0.1621
     52  C         22.1590   39.0160    1.2420 C.2    89  HIS89       0.2264
     53  O         22.6600   38.3660    2.1630 O.2    89  HIS89      -0.2867
     54  CB        20.1270   38.5260   -0.0310 C.3    89  HIS89       0.0745
     55  CG        19.4140   37.6980    1.0010 C.ar   89  HIS89       0.0817
     56  ND1       18.9150   36.4370    0.7320 N.ar   89  HIS89      -0.2268
     57  CD2       19.1820   37.9180    2.3190 C.ar   89  HIS89       0.1154
     58  CE1       18.4120   35.9160    1.8390 C.ar   89  HIS89       0.1986
     59  NE2       18.5620   36.7950    2.8170 N.ar   89  HIS89      -0.2212
     60  N         17.9350   44.6040    3.6080 N.3    92  ALA92      -0.1231
     61  CA        17.1990   45.5340    2.7520 C.3    92  ALA92       0.1694
     62  C         17.2500   46.9600    3.3370 C.2    92  ALA92       0.2592
     63  O         17.3910   47.1430    4.5550 O.2    92  ALA92      -0.2718
     64  CB        15.7460   45.0750    2.6080 C.3    92  ALA92       0.0304
     65  N         17.1860   47.9600    2.4620 N.am   93  GLY93      -0.1957
     66  CA        17.1900   49.3490    2.8990 C.3    93  GLY93       0.1869
     67  C         18.4540   49.8820    3.5490 C.2    93  GLY93       0.2309
     68  O         19.5520   49.7390    3.0050 O.2    93  GLY93      -0.2863
     69  N         12.3410   42.8500   -8.8810 N.3   121  THR121     -0.1218
     70  CA        11.5200   42.1380   -7.9250 C.3   121  THR121      0.1862
     71  C         11.0930   40.7800   -8.4070 C.2   121  THR121      0.2287
     72  O         10.6690   40.6360   -9.5490 O.2   121  THR121     -0.2866
     73  CB        10.2650   42.9630   -7.6260 C.3   121  THR121      0.1770
     74  OG1       10.6730   44.2470   -7.1510 O.3   121  THR121     -0.2211
     75  CG2        9.3730   42.2830   -6.5860 C.3   121  THR121      0.0375
     76  N         14.4940   38.8930   -3.3040 N.3   139  LEU139     -0.1231
     77  CA        13.5010   38.1550   -2.5230 C.3   139  LEU139      0.1693
     78  C         13.0570   39.1570   -1.4530 C.2   139  LEU139      0.2592
     79  O         13.8650   39.5800   -0.6210 O.2   139  LEU139     -0.2718
     80  CB        14.1450   36.9250   -1.8620 C.3   139  LEU139      0.0284
     81  CG        13.3040   36.0600   -0.9180 C.3   139  LEU139      0.0019
     82  CD1       12.1210   35.4570   -1.6450 C.3   139  LEU139      0.0001
     83  CD2       14.1750   34.9550   -0.3430 C.3   139  LEU139      0.0001
     84  N         11.7930   39.5720   -1.5130 N.am  140  VAL140     -0.1966
     85  CA        11.2210   40.5520   -0.5770 C.3   140  VAL140      0.1727
     86  C         12.1230   41.7710   -0.2680 C.2   140  VAL140      0.2617
     87  O         12.2980   42.1680    0.8930 O.2   140  VAL140     -0.2715
     88  CB        10.6790   39.8760    0.7200 C.3   140  VAL140      0.0290
     89  CG1        9.5800   38.9000    0.3580 C.3   140  VAL140      0.0023
     90  CG2       11.7760   39.1580    1.4930 C.3   140  VAL140      0.0023
     91  N         12.7290   42.3180   -1.3260 N.am  141  GLY141     -0.1940
     92  CA        13.5850   43.4900   -1.2100 C.3   141  GLY141      0.2014
     93  C         15.0020   43.3040   -0.6930 C.2   141  GLY141      0.2638
     94  O         15.7460   44.2780   -0.5500 O.2   141  GLY141     -0.2714
     95  N         15.3880   42.0610   -0.4230 N.am  142  LEU142     -0.1977
     96  CA        16.7220   41.7720    0.0780 C.3   142  LEU142      0.1596
     97  C         17.7460   41.9630   -1.0390 C.2   142  LEU142      0.2287
     98  O         17.5680   41.4480   -2.1450 O.2   142  LEU142     -0.2864
     99  CB        16.7660   40.3520    0.6290 C.3   142  LEU142      0.0297
    100  CG        15.7610   40.0780    1.7590 C.3   142  LEU142      0.0022
    101  CD1       15.6050   38.5650    1.9520 C.3   142  LEU142      0.0001
    102  CD2       16.2130   40.7550    3.0610 C.3   142  LEU142      0.0001
    103  N         20.9670   28.8270    3.3590 N.3   174  ASN174     -0.1225
    104  CA        19.6430   29.4320    3.3090 C.3   174  ASN174      0.1785
    105  C         19.3110   29.9970    1.9270 C.2   174  ASN174      0.2597
    106  O         20.1940   30.4940    1.2260 O.2   174  ASN174     -0.2718
    107  CB        19.5690   30.5370    4.3730 C.3   174  ASN174      0.1169
    108  CG        18.3990   31.4930    4.1650 C.2   174  ASN174      0.2627
    109  OD1       18.5840   32.6220    3.7080 O.2   174  ASN174     -0.2716
    110  ND2       17.1960   31.0560    4.5260 N.am  174  ASN174     -0.0877
    111  N         18.0410   29.8690    1.5310 N.am  175  ALA175     -0.1979
    112  CA        17.5350   30.3890    0.2570 C.3   175  ALA175      0.1597
    113  C         18.3310   29.9320   -0.9670 C.2   175  ALA175      0.2287
    114  O         18.5370   30.7030   -1.9060 O.2   175  ALA175     -0.2864
    115  CB        17.4830   31.9380    0.3180 C.3   175  ALA175      0.0319
    116  N         17.4680   30.3610   -4.8450 N.3   178  HIS178     -0.1241
    117  CA        17.7080   31.6990   -5.3770 C.3   178  HIS178      0.1621
    118  C         19.1560   31.9310   -5.8330 C.2   178  HIS178      0.2264
    119  O         19.5420   33.0420   -6.1940 O.2   178  HIS178     -0.2867
    120  CB        17.2650   32.7380   -4.3580 C.3   178  HIS178      0.0745
    121  CG        15.8030   32.6630   -4.0310 C.ar  178  HIS178      0.0817
    122  ND1       14.8340   33.2700   -4.8040 N.ar  178  HIS178     -0.2268
    123  CD2       15.1400   32.0300   -3.0310 C.ar  178  HIS178      0.1154
    124  CE1       13.6410   33.0140   -4.2960 C.ar  178  HIS178      0.1986
    125  NE2       13.7970   32.2630   -3.2220 N.ar  178  HIS178     -0.2212
    126  N         18.8140   24.5900    1.6500 N.3   200  GLU200     -0.1245
    127  CA        17.3770   24.8160    1.7710 C.3   200  GLU200      0.1567
    128  C         16.7580   25.1200    0.4050 C.2   200  GLU200      0.2260
    129  O         16.8500   26.2460   -0.0830 O.2   200  GLU200     -0.2867
    130  CB        17.0650   25.9680    2.7330 C.3   200  GLU200      0.0388
    131  CG        15.5690   26.2860    2.8440 C.3   200  GLU200      0.1160
    132  CD        15.2890   27.7380    3.2230 C.2   200  GLU200      0.3649
    133  OE1       16.2430   28.5270    3.3470 O.co2 200  GLU200     -0.2457
    134  OE2       14.1080   28.1040    3.3920 O.co2 200  GLU200     -0.2457
    135  N         13.1520   24.7910   -1.5680 N.3   202  ILE202     -0.1245
    136  CA        11.7260   24.5150   -1.4260 C.3   202  ILE202      0.1561
    137  C         11.1810   24.1690   -2.8060 C.2   202  ILE202      0.2260
    138  O         11.0480   25.0360   -3.6630 O.2   202  ILE202     -0.2867
    139  CB        10.9600   25.7300   -0.8390 C.3   202  ILE202      0.0252
    140  CG1       11.6060   26.1590    0.4890 C.3   202  ILE202      0.0019
    141  CG2        9.4990   25.3750   -0.6190 C.3   202  ILE202      0.0019
    142  CD1       10.9050   27.3060    1.1990 C.3   202  ILE202      0.0001
    143  N         11.1920   26.1050   11.1760 N.3   263  HIS263     -0.1226
    144  CA        10.8570   27.4410   11.6670 C.3   263  HIS263      0.1752
    145  C         10.0130   28.3230   10.7370 C.2   263  HIS263      0.2596
    146  O          9.2460   29.1730   11.2150 O.2   263  HIS263     -0.2718
    147  CB        12.1100   28.1800   12.1740 C.3   263  HIS263      0.0759
    148  CG        12.9270   28.8060   11.0910 C.ar  263  HIS263      0.0818
    149  ND1       13.7850   28.0800   10.2910 N.ar  263  HIS263     -0.2268
    150  CD2       12.9930   30.0860   10.6540 C.ar  263  HIS263      0.1154
    151  CE1       14.3390   28.8840    9.4000 C.ar  263  HIS263      0.1986
    152  NE2       13.8740   30.1070    9.6000 N.ar  263  HIS263     -0.2212
    153  N         10.1490   28.1170    9.4260 N.am  264  ASP264     -0.1974
    154  CA         9.3900   28.8710    8.4300 C.3   264  ASP264      0.1709
    155  C          7.9720   28.3410    8.2580 C.2   264  ASP264      0.2293
    156  O          7.0000   29.0900    8.4050 O.2   264  ASP264     -0.2864
    157  CB        10.0660   28.8270    7.0490 C.3   264  ASP264      0.1436
    158  CG        11.2610   29.7430    6.9540 C.2   264  ASP264      0.3671
    159  OD1       11.1010   30.9640    7.1370 O.co2 264  ASP264     -0.2456
    160  OD2       12.3680   29.2430    6.6920 O.co2 264  ASP264     -0.2456
    161  N          5.1910   30.5370    6.3660 N.3   269  HIS269     -0.1241
    162  CA         6.1660   30.7930    5.3140 C.3   269  HIS269      0.1621
    163  C          6.5370   29.5140    4.5860 C.2   269  HIS269      0.2264
    164  O          7.4070   28.7780    5.0400 O.2   269  HIS269     -0.2867
    165  CB         7.4340   31.4260    5.9020 C.3   269  HIS269      0.0745
    166  CG         7.1880   32.6650    6.7140 C.ar  269  HIS269      0.0817
    167  ND1        7.2600   33.9340    6.1800 N.ar  269  HIS269     -0.2268
    168  CD2        6.9150   32.8310    8.0310 C.ar  269  HIS269      0.1154
    169  CE1        7.0500   34.8280    7.1330 C.ar  269  HIS269      0.1986
    170  NE2        6.8360   34.1850    8.2650 N.ar  269  HIS269     -0.2212
    171  N          5.5770   37.3110   13.3590 N.3   312  ASP312     -0.1239
    172  CA         6.8040   38.1050   13.2190 C.3   312  ASP312      0.1674
    173  C          7.6090   38.1450   14.5250 C.2   312  ASP312      0.2266
    174  O          8.8100   38.4320   14.5150 O.2   312  ASP312     -0.2867
    175  CB         6.4940   39.5500   12.8200 C.3   312  ASP312      0.1410
    176  CG         5.9070   39.6650   11.4390 C.2   312  ASP312      0.3668
    177  OD1        4.9110   40.3940   11.3120 O.co2 312  ASP312     -0.2456
    178  OD2        6.4280   39.0500   10.4790 O.co2 312  ASP312     -0.2456
@<TRIPOS>BOND
     1    72    71    2
     2    69    70    1
     3    71    70    1
     4    70    73    1
     5    73    74    1
     6    73    75    1
     7   119   118    2
     8   118   117    1
     9   117   116    1
    10   117   120    1
    11   122   124   ar
    12   122   121   ar
    13   120   121    1
    14   124   125   ar
    15   121   123   ar
    16   138   137    2
    17    76    77    1
    18   125   123   ar
    19   137   136    1
    20    77    80    1
    21    77    78    1
    22    98    97    2
    23   114   113    2
    24    80    81    1
    25    82    81    1
    26   135   136    1
    27    84    78   am
    28    84    85    1
    29    78    79    2
    30   136   139    1
    31    91    92    1
    32    91    86   am
    33    92    93    1
    34    97    96    1
    35   113   112    1
    36    81    83    1
    37   139   141    1
    38   139   140    1
    39    93    94    2
    40    93    95   am
    41    85    86    1
    42    85    88    1
    43    95    96    1
    44    86    87    2
    45    50    51    1
    46   129   128    2
    47    54    51    1
    48    54    55    1
    49    51    52    1
    50    96    99    1
    51   112   115    1
    52   112   111    1
    53    89    88    1
    54   128   127    1
    55   140   142    1
    56    99   100    1
    57    88    90    1
    58    56    55   ar
    59    56    58   ar
    60    55    57   ar
    61   106   105    2
    62    52    53    2
    63   111   105   am
    64   126   127    1
    65   100   101    1
    66   100   102    1
    67   127   130    1
    68    58    59   ar
    69   105   104    1
    70    57    59   ar
    71    65    66    1
    72    65    62   am
    73    64    61    1
    74   130   131    1
    75    61    62    1
    76    61    60    1
    77   131   132    1
    78    66    67    1
    79    68    67    2
    80   132   133   ar
    81   132   134   ar
    82   104   103    1
    83   104   107    1
    84    62    63    2
    85   109   108    2
    86   108   107    1
    87   108   110   am
    88   163   164    2
    89   163   162    1
    90   162   165    1
    91   162   161    1
    92    32    31    2
    93   165   166    1
    94    48    47    2
    95   167   166   ar
    96   167   169   ar
    97    47    46    1
    98    47    49   am
    99    46    45    1
   100   160   158   ar
   101   166   168   ar
   102    42    45    1
   103    42    43    1
   104    42    41    1
   105    31    41   am
   106    31    30    1
   107   158   157    1
   108   158   159   ar
   109   157   154    1
   110   169   170   ar
   111    33    30    1
   112    33    34    1
   113    36    34   ar
   114    36    38   ar
   115    43    44    2
   116    30    29    1
   117    34    35   ar
   118   168   170   ar
   119    38    39   ar
   120   155   156    2
   121   155   154    1
   122   154   153    1
   123    35    37   ar
   124    39    37   ar
   125    39    40    1
   126   151   152   ar
   127   151   149   ar
   128   153   145   am
   129    18    17    2
   130    14    12   ar
   131    14    13   ar
   132    27    25   ar
   133    27    28   ar
   134   152   150   ar
   135    25    22   ar
   136    19    20    1
   137    19    16    1
   138    28    26   ar
   139    22    20   ar
   140    22    24   ar
   141    20    21   ar
   142    26    24   ar
   143    24    23   ar
   144    12    10   ar
   145    21    23   ar
   146    13    11   ar
   147   149   148   ar
   148   178   176   ar
   149    17    16    1
   150   150   148   ar
   151   145   146    2
   152   145   144    1
   153    16    15    1
   154   148   147    1
   155   143   144    1
   156   177   176   ar
   157   176   175    1
   158    10     8   ar
   159    10     9   ar
   160    11     8   ar
   161   144   147    1
   162    15     3   am
   163     8     6   ar
   164     9     7   ar
   165   175   172    1
   166     4     3    2
   167     3     2    1
   168   172   171    1
   169   172   173    1
   170     6     7   ar
   171     6     5    1
   172   174   173    2
   173     2     5    1
   174     2     1    1
