@<TRIPOS>MOLECULE
tmp/1ky2A00.pdb
 193 186 0 0 0
SMALL
GASTEIGER

@<TRIPOS>ATOM
      1  N        -10.8270   19.4440   11.8140 N.3    15  SER15      -0.1202
      2  CA       -11.5680   20.2350   10.8650 C.3    15  SER15       0.2020
      3  C        -12.1940   21.4470   11.5610 C.2    15  SER15       0.2619
      4  O        -12.7320   21.2790   12.6560 O.2    15  SER15      -0.2717
      5  CB       -12.6800   19.3900   10.2240 C.3    15  SER15       0.2103
      6  OG       -13.3600   20.1830    9.2660 O.3    15  SER15      -0.2182
      7  N        -12.1390   22.6310   10.9350 N.am   16  GLY16      -0.1942
      8  CA       -12.8660   23.7620   11.4980 C.3    16  GLY16       0.2014
      9  C        -11.9740   24.6410   12.3520 C.2    16  GLY16       0.2639
     10  O        -12.4670   25.6990   12.7570 O.2    16  GLY16      -0.2714
     11  N        -10.7210   24.2580   12.6400 N.am   17  VAL17      -0.1963
     12  CA        -9.9420   25.0590   13.5770 C.3    17  VAL17       0.1727
     13  C         -9.3590   26.3020   12.9050 C.2    17  VAL17       0.2617
     14  O         -9.0040   27.2440   13.6360 O.2    17  VAL17      -0.2715
     15  CB        -8.8220   24.2430   14.2700 C.3    17  VAL17       0.0290
     16  CG1       -9.4340   23.0890   15.0750 C.3    17  VAL17       0.0023
     17  CG2       -7.7700   23.7530   13.2920 C.3    17  VAL17       0.0023
     18  N         -9.2930   26.3300   11.5820 N.am   18  GLY18      -0.1940
     19  CA        -8.8140   27.4400   10.7940 C.3    18  GLY18       0.2014
     20  C         -7.4470   27.2540   10.1800 C.2    18  GLY18       0.2639
     21  O         -6.7370   28.2500    9.9370 O.2    18  GLY18      -0.2714
     22  N         -7.0250   26.0280    9.8840 N.am   19  LYS19      -0.1963
     23  CA        -5.7350   25.7920    9.2470 C.3    19  LYS19       0.1728
     24  C         -5.6380   26.5190    7.9070 C.2    19  LYS19       0.2617
     25  O         -4.6530   27.2250    7.6750 O.2    19  LYS19      -0.2715
     26  CB        -5.4890   24.2920    9.0290 C.3    19  LYS19       0.0311
     27  CG        -5.6160   23.4630   10.2950 C.3    19  LYS19       0.0038
     28  CD        -5.3090   21.9940   10.0910 C.3    19  LYS19       0.0206
     29  CE        -6.3880   21.2450    9.3120 C.3    19  LYS19       0.1093
     30  NZ        -7.7550   21.5110    9.8680 N.3    19  LYS19      -0.1314
     31  N         -6.6400   26.3680    7.0340 N.am   20  THR20      -0.1937
     32  CA        -6.5490   27.0640    5.7380 C.3    20  THR20       0.2028
     33  C         -6.5480   28.5680    5.9070 C.2    20  THR20       0.2642
     34  O         -5.8030   29.2850    5.2180 O.2    20  THR20      -0.2714
     35  CB        -7.7260   26.6010    4.8460 C.3    20  THR20       0.1808
     36  OG1       -7.5820   25.1900    4.6360 O.3    20  THR20      -0.2208
     37  CG2       -7.6710   27.2870    3.4960 C.3    20  THR20       0.0379
     38  N         -7.3560   29.0640    6.8360 N.am   21  SER21      -0.1949
     39  CA        -7.3640   30.5080    7.1030 C.3    21  SER21       0.1924
     40  C         -6.0050   30.9950    7.5740 C.2    21  SER21       0.2314
     41  O         -5.5470   32.0560    7.1520 O.2    21  SER21      -0.2863
     42  CB        -8.4200   30.8300    8.1650 C.3    21  SER21       0.2116
     43  OG        -9.7050   30.4830    7.6630 O.3    21  SER21      -0.2180
     44  N         -7.7970   37.1690    4.2210 N.3    31  TYR31      -0.1241
     45  CA        -8.7030   36.2810    4.9380 C.3    31  TYR31       0.1605
     46  C        -10.0220   36.2650    4.1740 C.2    31  TYR31       0.2264
     47  O        -10.5680   37.3330    3.8670 O.2    31  TYR31      -0.2867
     48  CB        -8.9420   36.7570    6.3660 C.3    31  TYR31       0.0534
     49  CG        -9.9680   35.9540    7.1310 C.ar   31  TYR31      -0.0201
     50  CD1       -9.6500   34.7300    7.6920 C.ar   31  TYR31      -0.0009
     51  CD2      -11.2550   36.4320    7.3080 C.ar   31  TYR31      -0.0009
     52  CE1      -10.5980   34.0150    8.3930 C.ar   31  TYR31       0.0417
     53  CE2      -12.2150   35.7260    8.0010 C.ar   31  TYR31       0.0417
     54  CZ       -11.8780   34.5050    8.5450 C.ar   31  TYR31       0.1957
     55  OH       -12.8270   33.7930    9.2430 O.3    31  TYR31      -0.2866
     56  N        -13.9290   34.7780    4.5960 N.3    33  GLN33      -0.1231
     57  CA       -14.7880   34.1690    5.6060 C.3    33  GLN33       0.1698
     58  C        -15.1260   32.7330    5.2370 C.2    33  GLN33       0.2592
     59  O        -15.3880   31.8860    6.1010 O.2    33  GLN33      -0.2718
     60  CB       -16.0720   34.9880    5.7930 C.3    33  GLN33       0.0381
     61  CG       -16.8010   34.5350    7.0630 C.3    33  GLN33       0.0905
     62  CD       -16.2370   35.2480    8.2840 C.2    33  GLN33       0.2608
     63  OE1      -15.6950   34.6200    9.1930 O.2    33  GLN33      -0.2717
     64  NE2      -16.3820   36.5700    8.2820 N.am   33  GLN33      -0.0878
     65  N        -15.1400   32.3570    3.9580 N.am   34  GLN34      -0.1966
     66  CA       -15.5540   30.9730    3.7050 C.3    34  GLN34       0.1733
     67  C        -14.6700   30.2590    2.6980 C.2    34  GLN34       0.2616
     68  O        -14.8360   30.4660    1.4940 O.2    34  GLN34      -0.2715
     69  CB       -17.0040   30.9660    3.1970 C.3    34  GLN34       0.0408
     70  CG       -17.9900   31.4480    4.2470 C.3    34  GLN34       0.0908
     71  CD       -19.4060   31.6150    3.7310 C.2    34  GLN34       0.2608
     72  OE1      -20.2920   30.8580    4.1200 O.2    34  GLN34      -0.2717
     73  NE2      -19.6110   32.6050    2.8740 N.am   34  GLN34      -0.0878
     74  N        -13.7650   29.4260    3.1860 N.am   35  TYR35      -0.1960
     75  CA       -12.9750   28.5100    2.3740 C.3    35  TYR35       0.1771
     76  C        -13.6890   27.1600    2.2730 C.2    35  TYR35       0.2619
     77  O        -14.3760   26.7400    3.2000 O.2    35  TYR35      -0.2715
     78  CB       -11.5720   28.2640    2.9500 C.3    35  TYR35       0.0574
     79  CG       -10.7140   29.5030    3.0510 C.ar   35  TYR35      -0.0198
     80  CD1      -10.2190   30.0960    1.8940 C.ar   35  TYR35      -0.0009
     81  CD2      -10.4290   30.0820    4.2890 C.ar   35  TYR35      -0.0009
     82  CE1       -9.4350   31.2410    1.9630 C.ar   35  TYR35       0.0417
     83  CE2       -9.6470   31.2220    4.3530 C.ar   35  TYR35       0.0417
     84  CZ        -9.1590   31.7940    3.1940 C.ar   35  TYR35       0.1957
     85  OH        -8.3780   32.9280    3.2430 O.3    35  TYR35      -0.2866
     86  N        -13.5060   26.4410    1.1720 N.am   36  LYS36      -0.1963
     87  CA       -14.0010   25.0650    1.1370 C.3    36  LYS36       0.1728
     88  C        -13.2230   24.2150    2.1390 C.2    36  LYS36       0.2616
     89  O        -12.0420   24.5100    2.3930 O.2    36  LYS36      -0.2715
     90  CB       -13.8500   24.4140   -0.2410 C.3    36  LYS36       0.0311
     91  CG       -14.6480   25.0960   -1.3490 C.3    36  LYS36       0.0038
     92  CD       -14.3600   24.4130   -2.6760 C.3    36  LYS36       0.0206
     93  CE       -13.0910   24.9220   -3.3320 C.3    36  LYS36       0.1093
     94  NZ       -12.6330   26.2200   -2.7430 N.3    36  LYS36      -0.1314
     95  N        -13.8920   23.1980    2.6530 N.am   37  ALA37      -0.1963
     96  CA       -13.1820   22.2260    3.4720 C.3    37  ALA37       0.1728
     97  C        -12.0160   21.6550    2.6690 C.2    37  ALA37       0.2616
     98  O        -12.1570   21.3830    1.4780 O.2    37  ALA37      -0.2715
     99  CB       -14.1060   21.0910    3.9070 C.3    37  ALA37       0.0334
    100  N        -10.8850   21.4260    3.3430 N.am   38  THR38      -0.1951
    101  CA        -9.7140   20.9520    2.6350 C.3    38  THR38       0.1897
    102  C         -9.7830   19.4510    2.3520 C.2    38  THR38       0.2313
    103  O        -10.1650   18.6510    3.1960 O.2    38  THR38      -0.2863
    104  CB        -8.4540   21.2890    3.4500 C.3    38  THR38       0.1794
    105  OG1       -8.4410   22.7360    3.5360 O.3    38  THR38      -0.2208
    106  CG2       -7.1830   20.8600    2.7470 C.3    38  THR38       0.0378
    107  N         -1.0960   22.4490    3.8170 N.3    62  ASP62      -0.1225
    108  CA        -2.4140   22.4870    4.4350 C.3    62  ASP62       0.1805
    109  C         -3.0860   21.1390    4.2970 C.2    62  ASP62       0.2598
    110  O         -2.9190   20.5050    3.2530 O.2    62  ASP62      -0.2718
    111  CB        -3.2040   23.5870    3.7430 C.3    62  ASP62       0.1424
    112  CG        -4.5250   23.9310    4.3930 C.2    62  ASP62       0.3668
    113  OD1       -4.7170   23.6160    5.5890 O.co2  62  ASP62      -0.2456
    114  OD2       -5.3610   24.5080    3.6540 O.co2  62  ASP62      -0.2456
    115  N         -3.8020   20.6810    5.3120 N.am   63  THR63      -0.1953
    116  CA        -4.2920   19.3020    5.3280 C.3    63  THR63       0.1897
    117  C         -5.7560   19.2110    5.6480 C.2    63  THR63       0.2313
    118  O         -6.3910   20.1440    6.1340 O.2    63  THR63      -0.2863
    119  CB        -3.5360   18.4860    6.4120 C.3    63  THR63       0.1794
    120  OG1       -3.7450   19.0730    7.7020 O.3    63  THR63      -0.2208
    121  CG2       -2.0380   18.5330    6.1150 C.3    63  THR63       0.0378
    122  N         -8.7360   18.1700    7.8130 N.3    65  GLY65      -0.1210
    123  CA        -9.0780   17.8310    9.1850 C.3    65  GLY65       0.1956
    124  C        -10.1630   16.7600    9.2230 C.2    65  GLY65       0.2611
    125  O        -10.2560   16.0160   10.1960 O.2    65  GLY65      -0.2717
    126  N        -11.0220   16.6350    8.2110 N.am   66  GLN66      -0.1979
    127  CA       -12.0700   15.5980    8.2560 C.3    66  GLN66       0.1601
    128  C        -11.6380   14.2670    7.6780 C.2    66  GLN66       0.2287
    129  O        -11.1320   14.2400    6.5460 O.2    66  GLN66      -0.2864
    130  CB       -13.3090   16.0360    7.4610 C.3    66  GLN66       0.0394
    131  CG       -13.7990   17.4270    7.8280 C.3    66  GLN66       0.0908
    132  CD       -15.1440   17.7250    7.2210 C.2    66  GLN66       0.2608
    133  OE1      -15.8070   16.7730    6.8130 O.2    66  GLN66      -0.2717
    134  NE2      -15.5220   18.9900    7.1490 N.am   66  GLN66      -0.0878
    135  N         -6.1770   29.0180   17.8170 N.3   124  ASN124     -0.1225
    136  CA        -6.7370   30.0050   16.8900 C.3   124  ASN124      0.1785
    137  C         -8.1240   30.4680   17.3310 C.2   124  ASN124      0.2597
    138  O         -8.7640   29.8330   18.1790 O.2   124  ASN124     -0.2718
    139  CB        -6.7720   29.3810   15.4980 C.3   124  ASN124      0.1169
    140  CG        -7.1180   30.3170   14.3690 C.2   124  ASN124      0.2627
    141  OD1       -7.9360   30.0220   13.4790 O.2   124  ASN124     -0.2716
    142  ND2       -6.4920   31.4880   14.3780 N.am  124  ASN124     -0.0877
    143  N         -8.5820   31.5680   16.7470 N.am  125  LYS125     -0.1980
    144  CA        -9.8580   32.2240   17.0160 C.3   125  LYS125      0.1596
    145  C         -9.8820   32.9630   18.3480 C.2   125  LYS125      0.2287
    146  O        -10.9170   33.0850   19.0220 O.2   125  LYS125     -0.2864
    147  CB       -11.0300   31.2210   16.9430 C.3   125  LYS125      0.0298
    148  CG       -11.0310   30.4060   15.6600 C.3   125  LYS125      0.0038
    149  CD       -12.3430   29.7050   15.3740 C.3   125  LYS125      0.0206
    150  CE       -12.2170   28.6210   14.3130 C.3   125  LYS125      0.1093
    151  NZ       -13.5030   27.8590   14.1610 N.3   125  LYS125     -0.1314
    152  N         -9.9180   35.9300   18.7500 N.3   127  ASP127     -0.1225
    153  CA       -10.8390   37.0410   18.5840 C.3   127  ASP127      0.1805
    154  C        -12.2600   36.6950   19.0090 C.2   127  ASP127      0.2597
    155  O        -13.1160   37.5850   19.0290 O.2   127  ASP127     -0.2718
    156  CB       -10.8690   37.4720   17.0990 C.3   127  ASP127      0.1424
    157  CG       -11.4340   36.3250   16.2600 C.2   127  ASP127      0.3668
    158  OD1      -10.6350   35.4460   15.8680 O.co2 127  ASP127     -0.2456
    159  OD2      -12.6580   36.2660   15.9990 O.co2 127  ASP127     -0.2456
    160  N        -12.5900   35.4520   19.3250 N.am  128  ALA128     -0.1979
    161  CA       -13.9910   35.1080   19.5840 C.3   128  ALA128      0.1597
    162  C        -14.5050   35.8030   20.8380 C.2   128  ALA128      0.2287
    163  O        -13.7180   36.2480   21.6680 O.2   128  ALA128     -0.2864
    164  CB       -14.1730   33.6050   19.7310 C.3   128  ALA128      0.0319
    165  N        -17.5620   32.4710   24.3690 N.3   132  LYS132     -0.1245
    166  CA       -17.4350   31.2870   23.5160 C.3   132  LYS132      0.1561
    167  C        -16.0820   30.6030   23.7260 C.2   132  LYS132      0.2260
    168  O        -15.9310   29.4240   23.3840 O.2   132  LYS132     -0.2867
    169  CB       -17.5670   31.6210   22.0400 C.3   132  LYS132      0.0271
    170  CG       -18.5270   32.6860   21.5650 C.3   132  LYS132      0.0035
    171  CD       -18.2240   33.0630   20.1160 C.3   132  LYS132      0.0206
    172  CE       -18.6800   34.4680   19.7620 C.3   132  LYS132      0.1093
    173  NZ       -17.7720   35.1660   18.7980 N.3   132  LYS132     -0.1314
    174  N         -5.3670   34.8370   15.7040 N.3   156  SER156     -0.1202
    175  CA        -6.5980   35.0180   14.9300 C.3   156  SER156      0.2020
    176  C         -6.2530   35.2020   13.4630 C.2   156  SER156      0.2619
    177  O         -5.7180   36.2440   13.0520 O.2   156  SER156     -0.2717
    178  CB        -7.4150   36.2300   15.4300 C.3   156  SER156      0.2103
    179  OG        -8.4650   36.4980   14.5030 O.3   156  SER156     -0.2182
    180  N         -6.5230   34.1930   12.6230 N.am  157  ALA157     -0.1965
    181  CA        -6.3330   34.4200   11.1910 C.3   157  ALA157      0.1728
    182  C         -7.2800   35.5290   10.7080 C.2   157  ALA157      0.2616
    183  O         -6.9590   36.3040    9.8160 O.2   157  ALA157     -0.2715
    184  CB        -6.6390   33.1500   10.4060 C.3   157  ALA157      0.0334
    185  N         -8.4830   35.5690   11.2930 N.am  158  LYS158     -0.1977
    186  CA        -9.5050   36.5190   10.8600 C.3   158  LYS158      0.1596
    187  C         -9.0970   37.9710   11.0580 C.2   158  LYS158      0.2287
    188  O         -9.2660   38.7830   10.1450 O.2   158  LYS158     -0.2864
    189  CB       -10.7630   36.2170   11.6940 C.3   158  LYS158      0.0298
    190  CG       -11.9310   37.0950   11.3080 C.3   158  LYS158      0.0038
    191  CD       -13.2390   36.5900   11.9130 C.3   158  LYS158      0.0206
    192  CE       -14.3550   37.5770   11.5470 C.3   158  LYS158      0.1093
    193  NZ       -15.6390   36.8620   11.2870 N.3   158  LYS158     -0.1314
@<TRIPOS>BOND
     1    93    94    1
     2    93    92    1
     3    92    91    1
     4    91    90    1
     5    90    87    1
     6    87    86    1
     7    87    88    1
     8    86    76   am
     9    98    97    2
    10    68    67    2
    11    80    82   ar
    12    80    79   ar
    13    82    84   ar
    14    88    89    2
    15    88    95   am
    16    76    75    1
    17    76    77    2
    18   102   101    1
    19   102   103    2
    20    75    78    1
    21    75    74    1
    22   101   100    1
    23   101   104    1
    24    95    96    1
    25    97   100   am
    26    97    96    1
    27    67    74   am
    28    67    66    1
    29   106   104    1
    30    73    71   am
    31    78    79    1
    32    79    81   ar
    33    84    85    1
    34    84    83   ar
    35    69    66    1
    36    69    70    1
    37   110   109    2
    38   104   105    1
    39    96    99    1
    40    37    35    1
    41   114   112   ar
    42    66    65    1
    43    71    72    2
    44    71    70    1
    45   111   112    1
    46   111   108    1
    47   107   108    1
    48    47    46    2
    49    65    58   am
    50    46    45    1
    51    44    45    1
    52    81    83   ar
    53   109   108    1
    54   109   115   am
    55   112   113   ar
    56    56    57    1
    57    36    35    1
    58    35    32    1
    59    45    48    1
    60    34    33    2
    61    58    57    1
    62    58    59    2
    63   115   116    1
    64   116   117    1
    65   116   119    1
    66    57    60    1
    67   117   118    2
    68    32    33    1
    69    32    31    1
    70    60    61    1
    71    33    38   am
    72   121   119    1
    73    48    49    1
    74   119   120    1
    75   129   128    2
    76   133   132    2
    77    38    39    1
    78    31    24   am
    79    61    62    1
    80    39    40    1
    81    39    42    1
    82    49    51   ar
    83    49    50   ar
    84   134   132   am
    85    41    40    2
    86   132   131    1
    87    51    53   ar
    88   130   131    1
    89   130   127    1
    90    43    42    1
    91    25    24    2
    92   128   127    1
    93    50    52   ar
    94   122   123    1
    95    24    23    1
    96    53    54   ar
    97   126   127    1
    98   126   124   am
    99    64    62   am
   100    62    63    2
   101    52    54   ar
   102    54    55    1
   103    26    23    1
   104    26    27    1
   105   123   124    1
   106   124   125    2
   107    23    22    1
   108     6     5    1
   109    29    30    1
   110    29    28    1
   111   183   182    2
   112    22    20   am
   113    21    20    2
   114    28    27    1
   115   188   187    2
   116    20    19    1
   117     5     2    1
   118   184   181    1
   119   182   181    1
   120   182   185   am
   121    19    18    1
   122   186   187    1
   123   186   185    1
   124   186   189    1
   125     2     3    1
   126     2     1    1
   127     7     8    1
   128     7     3   am
   129   181   180    1
   130   193   192    1
   131   190   189    1
   132   190   191    1
   133     8     9    1
   134   192   191    1
   135     3     4    2
   136    18    13   am
   137     9    11   am
   138     9    10    2
   139   180   176   am
   140    11    12    1
   141    13    12    1
   142    13    14    2
   143   177   176    2
   144    17    15    1
   145   176   175    1
   146   141   140    2
   147    12    15    1
   148   151   150    1
   149    15    16    1
   150   150   149    1
   151   140   142   am
   152   140   139    1
   153   179   178    1
   154   175   178    1
   155   175   174    1
   156   149   148    1
   157   139   136    1
   158   148   147    1
   159   158   157   ar
   160   159   157   ar
   161   157   156    1
   162   143   144    1
   163   143   137   am
   164   136   137    1
   165   136   135    1
   166   147   144    1
   167   144   145    1
   168   156   153    1
   169   137   138    2
   170   145   146    2
   171   153   152    1
   172   153   154    1
   173   173   172    1
   174   154   155    2
   175   154   160   am
   176   160   161    1
   177   161   164    1
   178   161   162    1
   179   172   171    1
   180   171   170    1
   181   162   163    2
   182   170   169    1
   183   169   166    1
   184   168   167    2
   185   166   167    1
   186   166   165    1
