@<TRIPOS>MOLECULE
tmp/1ky3A00.pdb
 120 116 0 0 0
SMALL
GASTEIGER

@<TRIPOS>ATOM
      1  N          1.1790   -6.7080   22.4630 N.3    11  SER11      -0.1202
      2  CA         0.0200   -6.9190   23.3080 C.3    11  SER11       0.2020
      3  C          0.3460   -7.8200   24.4960 C.2    11  SER11       0.2619
      4  O          1.0350   -8.8410   24.3600 O.2    11  SER11      -0.2717
      5  CB        -1.0800   -7.5560   22.4260 C.3    11  SER11       0.2103
      6  OG        -2.2500   -7.6790   23.1890 O.3    11  SER11      -0.2182
      7  N         -0.1270   -7.5030   25.7100 N.am   12  GLY12      -0.1942
      8  CA         0.0760   -8.4000   26.8460 C.3    12  GLY12       0.2014
      9  C          1.1910   -8.0010   27.7610 C.2    12  GLY12       0.2639
     10  O          1.3010   -8.5810   28.8370 O.2    12  GLY12      -0.2714
     11  N          2.0210   -7.0510   27.4170 N.am   13  VAL13      -0.1963
     12  CA         3.2000   -6.7810   28.2720 C.3    13  VAL13       0.1727
     13  C          2.9230   -5.9400   29.4930 C.2    13  VAL13       0.2617
     14  O          3.7580   -5.9550   30.4480 O.2    13  VAL13      -0.2715
     15  CB         4.3220   -6.1070   27.4480 C.3    13  VAL13       0.0290
     16  CG1        4.7260   -7.0390   26.3140 C.3    13  VAL13       0.0023
     17  CG2        3.9010   -4.7720   26.8810 C.3    13  VAL13       0.0023
     18  N          1.7980   -5.2460   29.4930 N.am   14  GLY14      -0.1940
     19  CA         1.3820   -4.4240   30.6280 C.3    14  GLY14       0.2014
     20  C          1.3670   -2.9400   30.3200 C.2    14  GLY14       0.2639
     21  O          1.4630   -2.1650   31.2720 O.2    14  GLY14      -0.2714
     22  N          1.2650   -2.4760   29.0640 N.am   15  LYS15      -0.1963
     23  CA         1.2690   -1.0550   28.7420 C.3    15  LYS15       0.1728
     24  C          0.1310   -0.3500   29.4550 C.2    15  LYS15       0.2617
     25  O          0.3220    0.6680   30.1060 O.2    15  LYS15      -0.2715
     26  CB         1.1170   -0.8590   27.2140 C.3    15  LYS15       0.0311
     27  CG         2.3210   -1.4610   26.4540 C.3    15  LYS15       0.0038
     28  CD         2.2280   -1.2960   24.9600 C.3    15  LYS15       0.0206
     29  CE         0.9330   -1.7980   24.3540 C.3    15  LYS15       0.1093
     30  NZ         0.8080   -3.2940   24.4880 N.3    15  LYS15      -0.1314
     31  N         -1.1000   -0.8580   29.2980 N.am   16  THR16      -0.1937
     32  CA        -2.2640   -0.2320   29.9390 C.3    16  THR16       0.2028
     33  C         -2.1320   -0.1940   31.4660 C.2    16  THR16       0.2642
     34  O         -2.4340    0.7710   32.1710 O.2    16  THR16      -0.2714
     35  CB        -3.5500   -0.9630   29.4800 C.3    16  THR16       0.1808
     36  OG1       -3.6360   -0.8300   28.0550 O.3    16  THR16      -0.2208
     37  CG2       -4.7790   -0.3090   30.1070 C.3    16  THR16       0.0379
     38  N         -1.6280   -1.2840   32.0230 N.am   17  SER17      -0.1949
     39  CA        -1.4490   -1.3850   33.4720 C.3    17  SER17       0.1924
     40  C         -0.3890   -0.3920   33.9680 C.2    17  SER17       0.2314
     41  O         -0.5270    0.2080   35.0430 O.2    17  SER17      -0.2863
     42  CB        -1.0230   -2.8160   33.8600 C.3    17  SER17       0.2116
     43  OG        -2.0290   -3.7640   33.5430 O.3    17  SER17      -0.2180
     44  N         -3.8940   -0.7790   40.4520 N.3    27  TYR27      -0.1227
     45  CA        -3.7950   -1.9570   39.6090 C.3    27  TYR27       0.1736
     46  C         -5.0200   -2.8350   39.8820 C.2    27  TYR27       0.2596
     47  O         -5.3120   -3.1500   41.0310 O.2    27  TYR27      -0.2718
     48  CB        -2.5380   -2.7900   39.8590 C.3    27  TYR27       0.0548
     49  CG        -2.4760   -4.1110   39.1030 C.ar   27  TYR27      -0.0200
     50  CD1       -2.0260   -4.1620   37.7900 C.ar   27  TYR27      -0.0009
     51  CD2       -2.8720   -5.3000   39.6890 C.ar   27  TYR27      -0.0009
     52  CE1       -1.9780   -5.3740   37.1080 C.ar   27  TYR27       0.0417
     53  CE2       -2.8380   -6.5050   39.0420 C.ar   27  TYR27       0.0417
     54  CZ        -2.3830   -6.5200   37.7440 C.ar   27  TYR27       0.1957
     55  OH        -2.3410   -7.7320   37.0780 O.3    27  TYR27      -0.2866
     56  N         -5.6540   -3.2530   38.7850 N.am   28  SER28      -0.1938
     57  CA        -6.6270   -4.3230   38.9750 C.3    28  SER28       0.2055
     58  C         -6.4100   -5.3570   37.8770 C.2    28  SER28       0.2642
     59  O         -6.1850   -5.0360   36.7120 O.2    28  SER28      -0.2714
     60  CB        -8.0810   -3.8480   38.9930 C.3    28  SER28       0.2130
     61  OG        -8.8700   -4.9020   38.4600 O.3    28  SER28      -0.2179
     62  N         -6.5170   -6.6140   38.2960 N.am   29  GLN29      -0.1976
     63  CA        -6.4740   -7.7110   37.3450 C.3    29  GLN29       0.1601
     64  C         -7.6820   -7.5870   36.4110 C.2    29  GLN29       0.2287
     65  O         -7.6570   -8.0220   35.2610 O.2    29  GLN29      -0.2864
     66  CB        -6.4700   -9.0660   38.0450 C.3    29  GLN29       0.0394
     67  CG        -5.2750   -9.2960   38.9550 C.3    29  GLN29       0.0908
     68  CD        -5.2740  -10.6780   39.5790 C.2    29  GLN29       0.2608
     69  OE1       -6.1550  -11.4950   39.3090 O.2    29  GLN29      -0.2717
     70  NE2       -4.2820  -10.9470   40.4200 N.am   29  GLN29      -0.0878
     71  N          8.7270   -4.9960   32.0620 N.3   107  ASN107     -0.1225
     72  CA         7.6610   -5.1210   33.0610 C.3   107  ASN107      0.1785
     73  C          7.4600   -6.5400   33.5580 C.2   107  ASN107      0.2597
     74  O          7.9260   -7.5030   32.9280 O.2   107  ASN107     -0.2718
     75  CB         6.3620   -4.5740   32.4280 C.3   107  ASN107      0.1169
     76  CG         5.2330   -4.3370   33.3960 C.2   107  ASN107      0.2627
     77  OD1        4.0490   -4.7140   33.0960 O.2   107  ASN107     -0.2716
     78  ND2        5.5320   -3.6890   34.5070 N.am  107  ASN107     -0.0877
     79  N          6.7350   -6.6550   34.6490 N.am  108  LYS108     -0.1980
     80  CA         6.3940   -7.8770   35.3810 C.3   108  LYS108      0.1596
     81  C          7.5740   -8.4280   36.1570 C.2   108  LYS108      0.2287
     82  O          7.6900   -9.6520   36.3630 O.2   108  LYS108     -0.2864
     83  CB         5.8120   -8.9770   34.4510 C.3   108  LYS108      0.0298
     84  CG         4.6700   -8.3690   33.6020 C.3   108  LYS108      0.0038
     85  CD         3.7880   -9.4470   33.0060 C.3   108  LYS108      0.0206
     86  CE         2.8140   -8.8670   31.9700 C.3   108  LYS108      0.1093
     87  NZ         2.0690   -9.9920   31.2780 N.3   108  LYS108     -0.1314
     88  N          7.8570   -8.4760   39.1540 N.3   110  ASP110     -0.1225
     89  CA         7.3300   -9.1590   40.3400 C.3   110  ASP110      0.1805
     90  C          7.1900  -10.6480   40.1300 C.2   110  ASP110      0.2597
     91  O          6.9250  -11.4140   41.0760 O.2   110  ASP110     -0.2718
     92  CB         5.9140   -8.5970   40.6860 C.3   110  ASP110      0.1424
     93  CG         4.9940   -8.8240   39.4810 C.2   110  ASP110      0.3668
     94  OD1        4.2280   -9.8130   39.4820 O.co2 110  ASP110     -0.2456
     95  OD2        5.0550   -7.9810   38.5340 O.co2 110  ASP110     -0.2456
     96  N          7.3160  -11.1440   38.9160 N.am  111  ALA111     -0.1979
     97  CA         7.0530  -12.5650   38.6360 C.3   111  ALA111      0.1597
     98  C          8.0460  -13.4460   39.3530 C.2   111  ALA111      0.2287
     99  O          9.1890  -13.0560   39.5990 O.2   111  ALA111     -0.2864
    100  CB         7.1340  -12.7980   37.1290 C.3   111  ALA111      0.0319
    101  N          7.2850   -3.2240   37.8500 N.3   139  SER139     -0.1202
    102  CA         6.0490   -3.9470   38.0650 C.3   139  SER139      0.2020
    103  C          4.8990   -2.9890   38.2320 C.2   139  SER139      0.2619
    104  O          4.8160   -2.3180   39.2460 O.2   139  SER139     -0.2717
    105  CB         6.1590   -4.8320   39.3150 C.3   139  SER139      0.2103
    106  OG         4.8920   -5.4670   39.5510 O.3   139  SER139     -0.2182
    107  N          3.9960   -2.8830   37.2430 N.am  140  ALA140     -0.1965
    108  CA         2.7410   -2.1510   37.4030 C.3   140  ALA140      0.1728
    109  C          1.9150   -2.7530   38.5330 C.2   140  ALA140      0.2616
    110  O          1.3200   -2.0310   39.3590 O.2   140  ALA140     -0.2715
    111  CB         1.9760   -2.1550   36.0720 C.3   140  ALA140      0.0334
    112  N          1.9130   -4.0880   38.6310 N.am  141  LYS141     -0.1977
    113  CA         1.1040   -4.7780   39.6340 C.3   141  LYS141      0.1596
    114  C          1.5370   -4.4660   41.0620 C.2   141  LYS141      0.2287
    115  O          0.6640   -4.1790   41.9070 O.2   141  LYS141     -0.2864
    116  CB         1.1520   -6.2810   39.3990 C.3   141  LYS141      0.0298
    117  CG         0.4360   -7.1020   40.4690 C.3   141  LYS141      0.0038
    118  CD         0.6590   -8.5860   40.1730 C.3   141  LYS141      0.0206
    119  CE         0.0760   -9.4780   41.2520 C.3   141  LYS141      0.1093
    120  NZ         0.5710   -9.0410   42.5750 N.3   141  LYS141     -0.1314
@<TRIPOS>BOND
     1     5     6    1
     2     5     2    1
     3     1     2    1
     4     2     3    1
     5    29    30    1
     6    29    28    1
     7     4     3    2
     8     3     7   am
     9    28    27    1
    10     7     8    1
    11    16    15    1
    12    27    26    1
    13     8     9    1
    14    17    15    1
    15    26    23    1
    16    11     9   am
    17    11    12    1
    18    15    12    1
    19     9    10    2
    20    36    35    1
    21    12    13    1
    22    23    22    1
    23    23    24    1
    24    22    20   am
    25    31    24   am
    26    31    32    1
    27    24    25    2
    28    35    32    1
    29    35    37    1
    30    18    13   am
    31    18    19    1
    32    13    14    2
    33    32    33    1
    34    20    19    1
    35    20    21    2
    36    87    86    1
    37    33    38   am
    38    33    34    2
    39    86    85    1
    40    38    39    1
    41    71    72    1
    42    75    72    1
    43    75    76    1
    44    74    73    2
    45    85    84    1
    46    72    73    1
    47    77    76    2
    48    76    78   am
    49    39    42    1
    50    39    40    1
    51    43    42    1
    52    73    79   am
    53    84    83    1
    54    40    41    2
    55    83    80    1
    56    79    80    1
    57    65    64    2
    58    80    81    1
    59   111   108    1
    60    81    82    2
    61    64    63    1
    62    59    58    2
    63    55    54    1
    64    52    54   ar
    65    52    50   ar
    66   100    97    1
    67   107   108    1
    68   107   103   am
    69    63    66    1
    70    63    62    1
    71   108   109    1
    72    54    53   ar
    73    50    49   ar
    74   101   102    1
    75    58    62   am
    76    58    57    1
    77    66    67    1
    78   102   103    1
    79   102   105    1
    80   103   104    2
    81    61    60    1
    82   109   112   am
    83   109   110    2
    84    95    93   ar
    85   112   113    1
    86    97    96    1
    87    97    98    1
    88    56    57    1
    89    56    46   am
    90    96    90   am
    91    67    68    1
    92    57    60    1
    93    53    51   ar
    94    49    51   ar
    95    49    48    1
    96    88    89    1
    97    69    68    2
    98   105   106    1
    99    98    99    2
   100   116   113    1
   101   116   117    1
   102    93    94   ar
   103    93    92    1
   104    68    70   am
   105    45    48    1
   106    45    46    1
   107    45    44    1
   108   113   114    1
   109    46    47    2
   110    90    89    1
   111    90    91    2
   112   118   117    1
   113   118   119    1
   114    89    92    1
   115   114   115    2
   116   119   120    1
