@<TRIPOS>MOLECULE
tmp/1ky7A00.pdb
 222 215 0 0 0
SMALL
GASTEIGER

@<TRIPOS>ATOM
      1  N         28.5200   13.0010   -4.8080 N.3   142  SER142     -0.1202
      2  CA        28.1500   12.6390   -6.1710 C.3   142  SER142      0.2020
      3  C         29.1270   11.6420   -6.8100 C.2   142  SER142      0.2618
      4  O         28.7260   10.7030   -7.5100 O.2   142  SER142     -0.2717
      5  CB        28.0740   13.9160   -7.0250 C.3   142  SER142      0.2103
      6  OG        27.7260   13.6290   -8.3630 O.3   142  SER142     -0.2182
      7  N         30.4130   11.8510   -6.5770 N.am  143  GLN143     -0.1979
      8  CA        31.4210   10.9760   -7.1480 C.3   143  GLN143      0.1601
      9  C         31.2630    9.5410   -6.6370 C.2   143  GLN143      0.2287
     10  O         31.3410    8.5820   -7.4160 O.2   143  GLN143     -0.2864
     11  CB        32.8140   11.5020   -6.7990 C.3   143  GLN143      0.0394
     12  CG        33.9380   10.7840   -7.4920 C.3   143  GLN143      0.0908
     13  CD        35.2070   10.7800   -6.6610 C.2   143  GLN143      0.2608
     14  OE1       35.7330   11.8420   -6.2720 O.2   143  GLN143     -0.2717
     15  NE2       35.7070    9.5750   -6.3660 N.am  143  GLN143     -0.0878
     16  N         28.5950    8.1470   -5.4210 N.3   145  PHE145     -0.1227
     17  CA        27.3390    7.6510   -5.9710 C.3   145  PHE145      0.1736
     18  C         27.5030    7.0970   -7.3780 C.2   145  PHE145      0.2595
     19  O         27.0890    5.9730   -7.6670 O.2   145  PHE145     -0.2718
     20  CB        26.2810    8.7600   -6.0080 C.3   145  PHE145      0.0547
     21  CG        24.9690    8.3130   -6.5820 C.ar  145  PHE145     -0.0202
     22  CD1       23.9780    7.7890   -5.7580 C.ar  145  PHE145     -0.0042
     23  CD2       24.7500    8.3360   -7.9670 C.ar  145  PHE145     -0.0042
     24  CE1       22.7900    7.2890   -6.2980 C.ar  145  PHE145     -0.0003
     25  CE2       23.5660    7.8390   -8.5150 C.ar  145  PHE145     -0.0003
     26  CZ        22.5910    7.3170   -7.6830 C.ar  145  PHE145     -0.0000
     27  N         28.0910    7.8730   -8.2720 N.am  146  PHE146     -0.1976
     28  CA        28.2240    7.3610   -9.6250 C.3   146  PHE146      0.1639
     29  C         29.1380    6.1590   -9.7120 C.2   146  PHE146      0.2290
     30  O         28.8870    5.2410  -10.4930 O.2   146  PHE146     -0.2864
     31  CB        28.6470    8.4700  -10.5750 C.3   146  PHE146      0.0560
     32  CG        27.5220    9.3920  -10.9230 C.ar  146  PHE146     -0.0200
     33  CD1       27.4420   10.6580  -10.3630 C.ar  146  PHE146     -0.0042
     34  CD2       26.5060    8.9650  -11.7750 C.ar  146  PHE146     -0.0042
     35  CE1       26.3550   11.4920  -10.6450 C.ar  146  PHE146     -0.0003
     36  CE2       25.4180    9.7840  -12.0630 C.ar  146  PHE146     -0.0003
     37  CZ        25.3370   11.0450  -11.5010 C.ar  146  PHE146     -0.0000
     38  N         27.0000    3.4380   -8.7810 N.3   149  TRP149     -0.1227
     39  CA        25.9590    3.2760   -9.7930 C.3   149  TRP149      0.1737
     40  C         26.4230    2.4170  -10.9760 C.2   149  TRP149      0.2595
     41  O         25.6550    1.6170  -11.5160 O.2   149  TRP149     -0.2718
     42  CB        25.5140    4.6610  -10.2970 C.3   149  TRP149      0.0564
     43  CG        24.3560    4.6550  -11.2680 C.ar  149  TRP149      0.0003
     44  CD1       24.4300    4.7030  -12.6370 C.ar  149  TRP149      0.0946
     45  CD2       22.9520    4.6290  -10.9470 C.ar  149  TRP149      0.0152
     46  NE1       23.1680    4.7140  -13.1830 N.ar  149  TRP149     -0.2442
     47  CE2       22.2420    4.6680  -12.1730 C.ar  149  TRP149      0.0810
     48  CE3       22.2250    4.5740   -9.7490 C.ar  149  TRP149      0.0012
     49  CZ2       20.8400    4.6530  -12.2300 C.ar  149  TRP149      0.0191
     50  CZ3       20.8200    4.5560   -9.8120 C.ar  149  TRP149      0.0001
     51  CH2       20.1510    4.5960  -11.0420 C.ar  149  TRP149      0.0015
     52  N         27.6950    2.5720  -11.3410 N.am  150  LYS150     -0.1980
     53  CA        28.2620    1.8540  -12.4700 C.3   150  LYS150      0.1596
     54  C         28.8520    0.4690  -12.1470 C.2   150  LYS150      0.2287
     55  O         29.4770   -0.1730  -13.0120 O.2   150  LYS150     -0.2864
     56  CB        29.3050    2.7510  -13.1460 C.3   150  LYS150      0.0298
     57  CG        28.7130    4.0860  -13.5660 C.3   150  LYS150      0.0038
     58  CD        29.6870    4.9520  -14.3230 C.3   150  LYS150      0.0206
     59  CE        28.9540    6.1410  -14.9320 C.3   150  LYS150      0.1093
     60  NZ        29.7450    6.8420  -15.9810 N.3   150  LYS150     -0.1314
     61  N         18.5250   -3.8720  -12.3520 N.3   158  GLU158     -0.1245
     62  CA        18.0510   -2.5360  -12.7190 C.3   158  GLU158      0.1567
     63  C         16.5950   -2.5070  -13.1680 C.2   158  GLU158      0.2260
     64  O         16.2430   -2.9430  -14.2770 O.2   158  GLU158     -0.2867
     65  CB        18.8890   -1.8720  -13.8180 C.3   158  GLU158      0.0388
     66  CG        18.2250   -0.5540  -14.2560 C.3   158  GLU158      0.1160
     67  CD        19.0740    0.3300  -15.1500 C.2   158  GLU158      0.3649
     68  OE1       19.5560   -0.1530  -16.2000 O.co2 158  GLU158     -0.2457
     69  OE2       19.2420    1.5240  -14.8180 O.co2 158  GLU158     -0.2457
     70  N         13.3250   -0.2290  -14.0480 N.3   160  GLN160     -0.1245
     71  CA        12.8670    1.0900  -14.4350 C.3   160  GLN160      0.1566
     72  C         11.3810    1.0490  -14.7200 C.2   160  GLN160      0.2260
     73  O         10.8880    0.1720  -15.4160 O.2   160  GLN160     -0.2867
     74  CB        13.6200    1.5640  -15.6730 C.3   160  GLN160      0.0367
     75  CG        14.1050    2.9950  -15.5950 C.3   160  GLN160      0.0905
     76  CD        15.1540    3.3050  -16.6590 C.2   160  GLN160      0.2608
     77  OE1       15.9650    4.2210  -16.5070 O.2   160  GLN160     -0.2717
     78  NE2       15.1380    2.5360  -17.7480 N.am  160  GLN160     -0.0878
     79  N          8.1850    3.5530  -15.9600 N.3   162  ILE162     -0.1245
     80  CA         7.7360    4.8290  -16.4950 C.3   162  ILE162      0.1561
     81  C          6.2320    4.8270  -16.3040 C.2   162  ILE162      0.2260
     82  O          5.5190    4.0510  -16.9200 O.2   162  ILE162     -0.2867
     83  CB         8.1480    4.9680  -17.9770 C.3   162  ILE162      0.0252
     84  CG1        9.6820    5.0270  -18.0590 C.3   162  ILE162      0.0019
     85  CG2        7.5410    6.2230  -18.5740 C.3   162  ILE162      0.0019
     86  CD1       10.2610    4.8000  -19.4460 C.3   162  ILE162      0.0001
     87  N         22.3770   17.6360   -5.4950 N.3   188  GLU188     -0.1231
     88  CA        23.3920   17.7980   -6.5180 C.3   188  GLU188      0.1699
     89  C         24.1630   16.5340   -6.9480 C.2   188  GLU188      0.2592
     90  O         25.3930   16.4640   -6.8500 O.2   188  GLU188     -0.2718
     91  CB        24.3690   18.9040   -6.0930 C.3   188  GLU188      0.0402
     92  CG        24.8140   18.8310   -4.6360 C.3   188  GLU188      0.1161
     93  CD        24.4360   20.0660   -3.8170 C.2   188  GLU188      0.3649
     94  OE1       25.3790   20.7230   -3.3160 O.co2 188  GLU188     -0.2457
     95  OE2       23.2210   20.3750   -3.6670 O.co2 188  GLU188     -0.2457
     96  N         23.4180   15.5330   -7.4060 N.am  189  VAL189     -0.1966
     97  CA        24.0000   14.3010   -7.9380 C.3   189  VAL189      0.1727
     98  C         23.5290   14.3420   -9.3920 C.2   189  VAL189      0.2616
     99  O         24.3170   14.2020  -10.3180 O.2   189  VAL189     -0.2715
    100  CB        23.4620   13.0140   -7.2580 C.3   189  VAL189      0.0290
    101  CG1       24.0990   11.7910   -7.9050 C.3   189  VAL189      0.0023
    102  CG2       23.7810   13.0360   -5.7810 C.3   189  VAL189      0.0023
    103  N         22.2300   14.5430   -9.5880 N.am  190  ASP190     -0.1958
    104  CA        21.7090   14.6680  -10.9410 C.3   190  ASP190      0.1825
    105  C         21.8500   16.1660  -11.2340 C.2   190  ASP190      0.2464
    106  O         21.3630   16.9940  -10.4760 O.2   190  ASP190     -0.2730
    107  CB        20.2310   14.2420  -11.0150 C.3   190  ASP190      0.1450
    108  CG        19.7190   14.1510  -12.4500 C.2   190  ASP190      0.3671
    109  OD1       19.8990   15.1160  -13.2050 O.co2 190  ASP190     -0.2456
    110  OD2       19.1420   13.1170  -12.8290 O.co2 190  ASP190     -0.2456
    111  N         22.5410   16.5280  -12.3280 N.am  191  PRO191     -0.2715
    112  CA        22.7470   17.9320  -12.7160 C.3   191  PRO191      0.1536
    113  C         21.4180   18.6740  -12.8460 C.2   191  PRO191      0.2598
    114  O         21.3390   19.8720  -12.6080 O.2   191  PRO191     -0.2715
    115  CB        23.4540   17.8210  -14.0620 C.3   191  PRO191      0.0310
    116  CG        24.0520   16.4480  -14.0350 C.3   191  PRO191      0.0237
    117  CD        23.0380   15.6170  -13.3730 C.3   191  PRO191      0.0939
    118  N         20.3750   17.9580  -13.2510 N.am  192  ASN192     -0.1973
    119  CA        19.0580   18.5660  -13.3950 C.3   192  ASN192      0.1688
    120  C         18.4400   18.6560  -11.9850 C.2   192  ASN192      0.2292
    121  O         18.0810   17.6600  -11.3780 O.2   192  ASN192     -0.2864
    122  CB        18.1990   17.7220  -14.3490 C.3   192  ASN192      0.1181
    123  CG        16.8260   18.3120  -14.5960 C.2   192  ASN192      0.2629
    124  OD1       16.3310   19.1320  -13.8150 O.2   192  ASN192     -0.2716
    125  ND2       16.1820   17.8710  -15.6800 N.am  192  ASN192     -0.0877
    126  N         15.2150   16.7360  -10.6940 N.3   195  ASN195     -0.1240
    127  CA        15.2160   15.3150  -10.4010 C.3   195  ASN195      0.1653
    128  C         15.6550   14.9950   -8.9890 C.2   195  ASN195      0.2266
    129  O         16.2580   15.8250   -8.3150 O.2   195  ASN195     -0.2867
    130  CB        16.0990   14.5630  -11.4080 C.3   195  ASN195      0.1155
    131  CG        15.5390   14.6270  -12.8110 C.2   195  ASN195      0.2627
    132  OD1       14.3910   15.0190  -12.9970 O.2   195  ASN195     -0.2716
    133  ND2       16.3330   14.2350  -13.8010 N.am  195  ASN195     -0.0877
    134  N         17.5340   11.9430   -6.4900 N.3   197  VAL197     -0.1245
    135  CA        18.4000   10.7870   -6.4290 C.3   197  VAL197      0.1561
    136  C         18.4200   10.3040   -4.9770 C.2   197  VAL197      0.2260
    137  O         18.4810   11.1110   -4.0430 O.2   197  VAL197     -0.2867
    138  CB        19.8360   11.1370   -6.9160 C.3   197  VAL197      0.0252
    139  CG1       20.7520    9.9520   -6.7320 C.3   197  VAL197      0.0019
    140  CG2       19.8060   11.5120   -8.3920 C.3   197  VAL197      0.0019
    141  N         16.6830    6.8030   -8.7490 N.3   214  ARG214     -0.1245
    142  CA        16.5580    8.0640   -9.4470 C.3   214  ARG214      0.1563
    143  C         15.1050    8.2810   -9.8570 C.2   214  ARG214      0.2260
    144  O         14.5050    7.4200  -10.4910 O.2   214  ARG214     -0.2867
    145  CB        17.4590    8.0310  -10.6780 C.3   214  ARG214      0.0307
    146  CG        17.4780    9.2980  -11.5050 C.3   214  ARG214      0.0489
    147  CD        18.1230    9.0420  -12.8480 C.3   214  ARG214      0.2205
    148  NE        18.4240   10.2910  -13.5420 N.pl3 214  ARG214     -0.0865
    149  CZ        18.7600   10.3840  -14.8280 C.cat 214  ARG214      0.5346
    150  NH1       18.8430    9.2990  -15.5900 N.pl3 214  ARG214      0.1354
    151  NH2       19.0310   11.5710  -15.3420 N.pl3 214  ARG214      0.1354
    152  N         12.6000   10.7690  -11.9220 N.3   216  GLU216     -0.1231
    153  CA        12.5750   11.8050  -12.9430 C.3   216  GLU216      0.1684
    154  C         11.1570   12.2780  -13.2990 C.2   216  GLU216      0.2434
    155  O         10.3960   11.5660  -13.9630 O.2   216  GLU216     -0.2733
    156  CB        13.2710   11.2950  -14.2070 C.3   216  GLU216      0.0402
    157  CG        14.7700   11.2480  -14.1150 C.3   216  GLU216      0.1161
    158  CD        15.3920   10.5070  -15.2860 C.2   216  GLU216      0.3649
    159  OE1       15.2340    9.2730  -15.3500 O.co2 216  GLU216     -0.2457
    160  OE2       16.0320   11.1580  -16.1430 O.co2 216  GLU216     -0.2457
    161  N         10.7920   13.4910  -12.8570 N.am  217  PRO217     -0.2718
    162  CA         9.4640   14.0290  -13.1500 C.3   217  PRO217      0.1535
    163  C          9.4070   14.6310  -14.5540 C.2   217  PRO217      0.2598
    164  O         10.4100   15.1040  -15.0820 O.2   217  PRO217     -0.2715
    165  CB         9.2740   15.1200  -12.0840 C.3   217  PRO217      0.0310
    166  CG        10.2980   14.7970  -11.0280 C.3   217  PRO217      0.0237
    167  CD        11.4710   14.3130  -11.8400 C.3   217  PRO217      0.0939
    168  N          8.2400   14.5610  -15.1740 N.am  218  ASN218     -0.1973
    169  CA         8.0310   15.1890  -16.4680 C.3   218  ASN218      0.1688
    170  C          6.7060   15.8870  -16.2150 C.2   218  ASN218      0.2292
    171  O          5.6450   15.2750  -16.3130 O.2   218  ASN218     -0.2864
    172  CB         7.8850   14.1750  -17.5990 C.3   218  ASN218      0.1181
    173  CG         7.6870   14.8480  -18.9470 C.2   218  ASN218      0.2629
    174  OD1        6.9220   15.8160  -19.0720 O.2   218  ASN218     -0.2716
    175  ND2        8.3660   14.3350  -19.9690 N.am  218  ASN218     -0.0877
    176  N          4.0300   16.0780  -19.2420 N.3   221  ALA221     -0.1245
    177  CA         3.4300   14.7860  -19.4820 C.3   221  ALA221      0.1562
    178  C          2.7070   14.2760  -18.2310 C.2   221  ALA221      0.2260
    179  O          1.8200   13.4280  -18.3150 O.2   221  ALA221     -0.2867
    180  CB         4.5020   13.8090  -19.9100 C.3   221  ALA221      0.0290
    181  N          4.1800   12.6750  -15.8760 N.3   223  MET223     -0.1230
    182  CA         4.7370   11.3460  -15.7280 C.3   223  MET223      0.1702
    183  C          6.0650   11.2790  -15.0050 C.2   223  MET223      0.2592
    184  O          6.7420   12.2760  -14.7970 O.2   223  MET223     -0.2718
    185  CB         4.8760   10.6960  -17.0960 C.3   223  MET223      0.0401
    186  CG         3.5260   10.4030  -17.7250 C.3   223  MET223      0.0596
    187  SD         3.6940    9.3720  -19.1510 S.3   223  MET223     -0.1393
    188  CE         3.9950    7.7340  -18.3540 C.3   223  MET223      0.0692
    189  N          6.4320   10.0790  -14.6090 N.am  224  TYR224     -0.1962
    190  CA         7.6930    9.8950  -13.9280 C.3   224  TYR224      0.1771
    191  C          8.4300    8.7520  -14.5240 C.2   224  TYR224      0.2619
    192  O          7.8600    7.9250  -15.2190 O.2   224  TYR224     -0.2715
    193  CB         7.5000    9.5340  -12.4590 C.3   224  TYR224      0.0574
    194  CG         6.9250   10.6020  -11.5890 C.ar  224  TYR224     -0.0198
    195  CD1        5.5520   10.7260  -11.4290 C.ar  224  TYR224     -0.0009
    196  CD2        7.7560   11.4610  -10.8740 C.ar  224  TYR224     -0.0009
    197  CE1        5.0180   11.6770  -10.5760 C.ar  224  TYR224      0.0417
    198  CE2        7.2300   12.4160  -10.0140 C.ar  224  TYR224      0.0417
    199  CZ         5.8610   12.5230   -9.8710 C.ar  224  TYR224      0.1957
    200  OH         5.3300   13.4960   -9.0550 O.3   224  TYR224     -0.2866
    201  N          9.7230    8.7250  -14.2700 N.am  225  ARG225     -0.1977
    202  CA        10.5080    7.5760  -14.6530 C.3   225  ARG225      0.1597
    203  C         11.3060    7.3170  -13.3930 C.2   225  ARG225      0.2287
    204  O         12.1050    8.1560  -12.9650 O.2   225  ARG225     -0.2864
    205  CB        11.4530    7.8080  -15.8320 C.3   225  ARG225      0.0334
    206  CG        12.3050    6.5540  -16.0520 C.3   225  ARG225      0.0492
    207  CD        13.1820    6.5640  -17.2930 C.3   225  ARG225      0.2205
    208  NE        14.3610    7.4170  -17.1750 N.pl3 225  ARG225     -0.0865
    209  CZ        15.3220    7.5070  -18.0960 C.cat 225  ARG225      0.5346
    210  NH1       15.2600    6.8010  -19.2230 N.pl3 225  ARG225      0.1354
    211  NH2       16.3770    8.2800  -17.8770 N.pl3 225  ARG225      0.1354
    212  N         18.4410    0.5930   -8.7550 N.3   229  ARG229     -0.1245
    213  CA        19.6240   -0.2290   -8.9740 C.3   229  ARG229      0.1563
    214  C         20.0900   -0.6540   -7.5910 C.2   229  ARG229      0.2260
    215  O         20.4930    0.1850   -6.7870 O.2   229  ARG229     -0.2867
    216  CB        20.7390    0.5490   -9.6760 C.3   229  ARG229      0.0307
    217  CG        20.5410    0.7300  -11.1740 C.3   229  ARG229      0.0489
    218  CD        21.8040    1.2740  -11.7890 C.3   229  ARG229      0.2205
    219  NE        21.6910    1.4400  -13.2330 N.pl3 229  ARG229     -0.0865
    220  CZ        22.7220    1.4580  -14.0800 C.cat 229  ARG229      0.5346
    221  NH1       23.9660    1.3200  -13.6520 N.pl3 229  ARG229      0.1354
    222  NH2       22.5020    1.6080  -15.3720 N.pl3 229  ARG229      0.1354
@<TRIPOS>BOND
     1   175   173   am
     2   180   177    1
     3   177   176    1
     4   177   178    1
     5    86    84    1
     6   210   209    1
     7   187   188    1
     8   187   186    1
     9   174   173    2
    10   173   172    1
    11    85    83    1
    12   179   178    2
    13   209   211    1
    14   209   208    2
    15    84    83    1
    16    83    80    1
    17    78    76   am
    18   186   185    1
    19   172   169    1
    20   207   208    1
    21   207   206    1
    22   185   182    1
    23    82    81    2
    24    76    77    2
    25    76    75    1
    26    80    81    1
    27    80    79    1
    28   169   170    1
    29   169   168    1
    30   171   170    2
    31    68    67   ar
    32   160   158   ar
    33   206   205    1
    34    60    59    1
    35   181   182    1
    36   205   202    1
    37   182   183    1
    38   125   123   am
    39    74    75    1
    40    74    71    1
    41   150   149    1
    42    73    72    2
    43   222   220    1
    44   159   158   ar
    45   151   149    1
    46   158   157    1
    47   192   191    2
    48   168   163   am
    49    67    69   ar
    50    67    66    1
    51   164   163    2
    52   183   184    2
    53   183   189   am
    54    59    58    1
    55   149   148    2
    56    72    71    1
    57   202   201    1
    58   202   203    1
    59   189   190    1
    60   123   122    1
    61   123   124    2
    62   163   162    1
    63   191   201   am
    64   191   190    1
    65    71    70    1
    66   122   119    1
    67    58    57    1
    68    64    63    2
    69    66    65    1
    70   156   157    1
    71   156   153    1
    72   220   221    1
    73   220   219    2
    74   115   116    1
    75   115   112    1
    76   116   117    1
    77   155   154    2
    78   190   193    1
    79    65    62    1
    80   133   131   am
    81    57    56    1
    82   148   147    1
    83   119   118    1
    84   119   120    1
    85   203   204    2
    86   117   111    1
    87   154   153    1
    88   154   161   am
    89   118   113   am
    90   219   218    1
    91   109   108   ar
    92    46    44   ar
    93    46    47   ar
    94    63    62    1
    95   162   161    1
    96   162   165    1
    97    56    53    1
    98    55    54    2
    99   132   131    2
   100   153   152    1
   101   161   167    1
   102   147   146    1
   103   113   112    1
   104   113   114    2
   105   110   108   ar
   106   131   130    1
   107    62    61    1
   108   112   111    1
   109    44    43   ar
   110    53    54    1
   111    53    52    1
   112   193   194    1
   113   108   107    1
   114   111   105   am
   115    49    47   ar
   116    49    51   ar
   117    47    45   ar
   118   165   166    1
   119    36    34   ar
   120    36    37   ar
   121   120   121    2
   122   167   166    1
   123   218   217    1
   124    34    32   ar
   125   194   195   ar
   126   194   196   ar
   127    41    40    2
   128   146   145    1
   129    37    35   ar
   130   195   197   ar
   131   130   127    1
   132    52    40   am
   133    43    45   ar
   134    43    42    1
   135   105   104    1
   136   105   106    2
   137   217   216    1
   138    51    50   ar
   139   107   104    1
   140    40    39    1
   141    45    48   ar
   142   104   103    1
   143    32    31    1
   144    32    33   ar
   145   196   198   ar
   146   126   127    1
   147   145   142    1
   148    35    33   ar
   149   197   199   ar
   150    31    28    1
   151    30    29    2
   152   144   143    2
   153   127   128    1
   154    99    98    2
   155    42    39    1
   156   198   199   ar
   157   199   200    1
   158   143   142    1
   159    50    48   ar
   160    39    38    1
   161    29    28    1
   162   216   213    1
   163    28    27    1
   164   103    98   am
   165   142   141    1
   166    98    97    1
   167   128   129    2
   168   213   212    1
   169   213   214    1
   170    25    23   ar
   171    25    26   ar
   172   140   138    1
   173     6     5    1
   174    27    18   am
   175    23    21   ar
   176    97    96    1
   177    97   100    1
   178   101   100    1
   179    26    24   ar
   180    19    18    2
   181   214   215    2
   182     4     3    2
   183    12    11    1
   184    12    13    1
   185    10     9    2
   186    96    89   am
   187    18    17    1
   188   100   102    1
   189     8    11    1
   190     8     9    1
   191     8     7    1
   192     5     2    1
   193    89    90    2
   194    89    88    1
   195   138   139    1
   196   138   135    1
   197     3     7   am
   198     3     2    1
   199    13    15   am
   200    13    14    2
   201    21    20    1
   202    21    22   ar
   203    88    91    1
   204    88    87    1
   205   134   135    1
   206   135   136    1
   207    24    22   ar
   208     2     1    1
   209    91    92    1
   210    20    17    1
   211    17    16    1
   212   136   137    2
   213    92    93    1
   214    93    95   ar
   215    93    94   ar
