@<TRIPOS>MOLECULE
tmp/1kyaB04.pdb
 72 68 0 0 0
SMALL
GASTEIGER

@<TRIPOS>ATOM
      1  N         24.1350   71.2880   33.2290 N.3   215  GLY215     -0.1210
      2  CA        24.8470   70.1620   32.6450 C.3   215  GLY215      0.1956
      3  C         25.9470   69.5140   33.4610 C.2   215  GLY215      0.2612
      4  O         26.5980   68.5780   32.9780 O.2   215  GLY215     -0.2717
      5  N         26.1600   69.9790   34.6900 N.am  216  HIS216     -0.1961
      6  CA        27.2290   69.4100   35.5120 C.3   216  HIS216      0.1787
      7  C         26.8060   68.9220   36.8940 C.2   216  HIS216      0.2620
      8  O         25.8720   69.4420   37.5030 O.2   216  HIS216     -0.2715
      9  CB        28.3620   70.4340   35.6810 C.3   216  HIS216      0.0785
     10  CG        28.9860   70.8660   34.3960 C.ar  216  HIS216      0.0821
     11  ND1       28.3260   71.6420   33.4710 N.ar  216  HIS216     -0.2267
     12  CD2       30.2070   70.6030   33.8670 C.ar  216  HIS216      0.1154
     13  CE1       29.1110   71.8370   32.4240 C.ar  216  HIS216      0.1986
     14  NE2       30.2570   71.2170   32.6390 N.ar  216  HIS216     -0.2212
     15  N         27.5060   67.9040   37.3740 N.am  217  ASN217     -0.1972
     16  CA        27.2550   67.3560   38.7000 C.3   217  ASN217      0.1688
     17  C         28.3260   67.9530   39.5780 C.2   217  ASN217      0.2292
     18  O         29.2260   68.6110   39.0700 O.2   217  ASN217     -0.2864
     19  CB        27.3670   65.8320   38.6990 C.3   217  ASN217      0.1181
     20  CG        26.1230   65.1730   38.1600 C.2   217  ASN217      0.2629
     21  OD1       25.0090   65.5500   38.5410 O.2   217  ASN217     -0.2716
     22  ND2       26.2920   64.1870   37.2740 N.am  217  ASN217     -0.0877
     23  N         28.0690   62.9180   45.6200 N.3   232  VAL232     -0.1231
     24  CA        27.7220   63.4580   44.3200 C.3   232  VAL232      0.1692
     25  C         26.3920   64.1880   44.4290 C.2   232  VAL232      0.2592
     26  O         25.3910   63.6240   44.8760 O.2   232  VAL232     -0.2718
     27  CB        27.6570   62.3400   43.2560 C.3   232  VAL232      0.0266
     28  CG1       27.1820   62.9060   41.9320 C.3   232  VAL232      0.0020
     29  CG2       29.0360   61.7290   43.0800 C.3   232  VAL232      0.0020
     30  N         26.3970   65.4520   44.0200 N.am  233  VAL233     -0.1966
     31  CA        25.2080   66.2870   44.1060 C.3   233  VAL233      0.1727
     32  C         24.8110   67.0300   42.8250 C.2   233  VAL233      0.2616
     33  O         25.6260   67.3120   41.9500 O.2   233  VAL233     -0.2715
     34  CB        25.3600   67.2840   45.2910 C.3   233  VAL233      0.0290
     35  CG1       24.8080   68.6510   44.9310 C.3   233  VAL233      0.0023
     36  CG2       24.6500   66.7250   46.5170 C.3   233  VAL233      0.0023
     37  N         23.5280   67.3470   42.7660 N.am  234  ASP234     -0.1971
     38  CA        22.8790   68.0150   41.6530 C.3   234  ASP234      0.1709
     39  C         22.8520   69.5300   41.8530 C.2   234  ASP234      0.2293
     40  O         23.0440   70.3020   40.9240 O.2   234  ASP234     -0.2864
     41  CB        21.4370   67.4890   41.5770 C.3   234  ASP234      0.1436
     42  CG        21.0110   67.1440   40.1790 C.2   234  ASP234      0.3671
     43  OD1       21.8680   66.7070   39.3850 O.co2 234  ASP234     -0.2456
     44  OD2       19.8120   67.2950   39.8790 O.co2 234  ASP234     -0.2456
     45  N         31.9330   67.8320   29.9180 N.3   252  GLN252     -0.1245
     46  CA        30.8360   68.0720   28.9860 C.3   252  GLN252      0.1566
     47  C         31.3860   68.7120   27.7090 C.2   252  GLN252      0.2260
     48  O         32.5720   69.0420   27.6340 O.2   252  GLN252     -0.2867
     49  CB        29.7780   68.9810   29.6260 C.3   252  GLN252      0.0367
     50  CG        29.0950   68.3600   30.8370 C.3   252  GLN252      0.0905
     51  CD        28.3490   67.0700   30.5060 C.2   252  GLN252      0.2608
     52  OE1       27.3080   67.0870   29.8450 O.2   252  GLN252     -0.2717
     53  NE2       28.8850   65.9490   30.9620 N.am  252  GLN252     -0.0878
     54  N         17.8620   72.2500   34.3830 N.3   294  THR294     -0.1218
     55  CA        17.0610   71.0440   34.4610 C.3   294  THR294      0.1862
     56  C         16.6970   70.7920   35.9190 C.2   294  THR294      0.2287
     57  O         17.2740   71.3960   36.8270 O.2   294  THR294     -0.2866
     58  CB        17.8250   69.8160   33.8990 C.3   294  THR294      0.1770
     59  OG1       18.9740   69.5420   34.7090 O.3   294  THR294     -0.2211
     60  CG2       18.2830   70.0880   32.4780 C.3   294  THR294      0.0375
     61  N         17.7700   66.3090   40.6860 N.3   297  THR297     -0.1203
     62  CA        17.3820   64.9790   41.1460 C.3   297  THR297      0.1994
     63  C         18.2960   64.4480   42.2560 C.2   297  THR297      0.2617
     64  O         18.0640   63.3600   42.7910 O.2   297  THR297     -0.2717
     65  CB        17.3930   63.9680   39.9940 C.3   297  THR297      0.1784
     66  OG1       18.6850   63.9720   39.3620 O.3   297  THR297     -0.2211
     67  CG2       16.3100   64.3190   38.9800 C.3   297  THR297      0.0376
     68  N         19.3320   65.2160   42.5900 N.am  298  ALA298     -0.1979
     69  CA        20.2680   64.8400   43.6380 C.3   298  ALA298      0.1597
     70  C         20.6030   66.0550   44.5130 C.2   298  ALA298      0.2287
     71  O         21.7720   66.3960   44.7150 O.2   298  ALA298     -0.2864
     72  CB        21.5390   64.2670   43.0270 C.3   298  ALA298      0.0319
@<TRIPOS>BOND
     1    48    47    2
     2    47    46    1
     3    46    49    1
     4    46    45    1
     5    49    50    1
     6    52    51    2
     7    51    50    1
     8    51    53   am
     9    13    14   ar
    10    13    11   ar
    11    60    58    1
    12    14    12   ar
    13     2     1    1
    14     2     3    1
    15     4     3    2
    16     3     5   am
    17    11    10   ar
    18    12    10   ar
    19    58    55    1
    20    58    59    1
    21    54    55    1
    22    10     9    1
    23    55    56    1
    24     5     6    1
    25     6     9    1
    26     6     7    1
    27    56    57    2
    28     7    15   am
    29     7     8    2
    30    22    20   am
    31    15    16    1
    32    20    21    2
    33    20    19    1
    34    19    16    1
    35    16    17    1
    36    67    65    1
    37    18    17    2
    38    66    65    1
    39    43    42   ar
    40    44    42   ar
    41    65    62    1
    42    42    41    1
    43    61    62    1
    44    40    39    2
    45    62    63    1
    46    41    38    1
    47    38    39    1
    48    38    37    1
    49    28    27    1
    50    33    32    2
    51    63    68   am
    52    63    64    2
    53    68    69    1
    54    37    32   am
    55    32    31    1
    56    72    69    1
    57    29    27    1
    58    27    24    1
    59    69    70    1
    60    30    31    1
    61    30    25   am
    62    31    34    1
    63    24    25    1
    64    24    23    1
    65    25    26    2
    66    70    71    2
    67    35    34    1
    68    34    36    1
