@<TRIPOS>MOLECULE
tmp/1kyaB02.pdb
 87 81 0 0 0
SMALL
GASTEIGER

@<TRIPOS>ATOM
      1  N         19.2730   61.4080   73.7460 N.3   319  ALA319     -0.1231
      2  CA        18.9120   62.8110   73.8840 C.3   319  ALA319      0.1694
      3  C         19.3910   63.2880   75.2540 C.2   319  ALA319      0.2592
      4  O         19.1710   62.6160   76.2670 O.2   319  ALA319     -0.2718
      5  CB        17.4040   62.9790   73.7630 C.3   319  ALA319      0.0304
      6  N         20.0610   64.4370   75.2800 N.am  320  GLY320     -0.1957
      7  CA        20.5490   64.9710   76.5380 C.3   320  GLY320      0.1869
      8  C         21.7230   64.2090   77.1240 C.2   320  GLY320      0.2309
      9  O         22.2860   64.6210   78.1370 O.2   320  GLY320     -0.2863
     10  N         23.1450   70.6120   78.6420 N.3   325  ALA325     -0.1231
     11  CA        22.2380   70.7420   77.5060 C.3   325  ALA325      0.1694
     12  C         21.4650   72.0430   77.6270 C.2   325  ALA325      0.2592
     13  O         20.9490   72.3710   78.6930 O.2   325  ALA325     -0.2718
     14  CB        21.2700   69.5720   77.4680 C.3   325  ALA325      0.0304
     15  N         21.3840   72.7920   76.5340 N.am  326  ILE326     -0.1966
     16  CA        20.6570   74.0570   76.5530 C.3   326  ILE326      0.1727
     17  C         19.7320   74.1750   75.3460 C.2   326  ILE326      0.2616
     18  O         20.1140   73.8410   74.2260 O.2   326  ILE326     -0.2715
     19  CB        21.6170   75.2640   76.5340 C.3   326  ILE326      0.0290
     20  CG1       22.6780   75.1030   77.6240 C.3   326  ILE326      0.0022
     21  CG2       20.8300   76.5410   76.7400 C.3   326  ILE326      0.0023
     22  CD1       23.7050   76.2280   77.6810 C.3   326  ILE326      0.0001
     23  N         18.5140   74.6470   75.5840 N.am  327  ASN327     -0.1972
     24  CA        17.5370   74.8270   74.5250 C.3   327  ASN327      0.1688
     25  C         17.3690   76.3280   74.3090 C.2   327  ASN327      0.2292
     26  O         17.2440   77.0750   75.2630 O.2   327  ASN327     -0.2864
     27  CB        16.2110   74.1820   74.9250 C.3   327  ASN327      0.1181
     28  CG        15.1270   74.3890   73.8910 C.2   327  ASN327      0.2629
     29  OD1       14.4550   75.4160   73.8860 O.2   327  ASN327     -0.2716
     30  ND2       14.9560   73.4160   73.0040 N.am  327  ASN327     -0.0877
     31  N         25.2390   70.1050   74.2970 N.3   381  GLU381     -0.1245
     32  CA        24.2020   69.8650   73.3100 C.3   381  GLU381      0.1567
     33  C         23.2500   71.0570   73.3260 C.2   381  GLU381      0.2260
     34  O         22.7230   71.4290   74.3770 O.2   381  GLU381     -0.2867
     35  CB        23.4380   68.5740   73.6280 C.3   381  GLU381      0.0388
     36  CG        22.2110   68.3690   72.7520 C.3   381  GLU381      0.1160
     37  CD        21.4970   67.0640   73.0240 C.2   381  GLU381      0.3649
     38  OE1       21.9910   65.9970   72.5950 O.co2 381  GLU381     -0.2457
     39  OE2       20.4320   67.1080   73.6750 O.co2 381  GLU381     -0.2457
     40  N         19.8530   73.0200   71.3160 N.3   383  SER383     -0.1217
     41  CA        18.7210   72.8120   70.4220 C.3   383  SER383      0.1889
     42  C         18.0860   74.1390   70.0140 C.2   383  SER383      0.2288
     43  O         17.8780   75.0210   70.8470 O.2   383  SER383     -0.2866
     44  CB        17.6840   71.8860   71.0870 C.3   383  SER383      0.2089
     45  OG        17.3850   72.2780   72.4210 O.3   383  SER383     -0.2183
     46  N         14.8260   74.9430   68.5060 N.3   385  PRO385     -0.2116
     47  CA        13.4290   74.7190   68.0210 C.3   385  PRO385      0.1372
     48  C         12.8450   75.8120   67.1350 C.2   385  PRO385      0.2244
     49  O         12.6580   76.9310   67.5980 O.2   385  PRO385     -0.2868
     50  CB        12.6810   74.3700   69.2970 C.3   385  PRO385      0.0268
     51  CG        13.6910   73.5590   70.0200 C.3   385  PRO385      0.0207
     52  CD        15.0680   73.9290   69.5390 C.3   385  PRO385      0.0892
     53  N         18.0070   61.5740   64.5780 N.3   415  TYR415     -0.1241
     54  CA        19.0660   61.9930   65.4890 C.3   415  TYR415      0.1605
     55  C         20.2460   61.0670   65.2180 C.2   415  TYR415      0.2264
     56  O         20.2170   59.8850   65.5630 O.2   415  TYR415     -0.2867
     57  CB        18.6220   61.8810   66.9570 C.3   415  TYR415      0.0534
     58  CG        17.6970   62.9960   67.4060 C.ar  415  TYR415     -0.0201
     59  CD1       16.3440   62.9840   67.0920 C.ar  415  TYR415     -0.0009
     60  CD2       18.1940   64.0880   68.1050 C.ar  415  TYR415     -0.0009
     61  CE1       15.5090   64.0340   67.4650 C.ar  415  TYR415      0.0417
     62  CE2       17.3760   65.1490   68.4810 C.ar  415  TYR415      0.0417
     63  CZ        16.0380   65.1180   68.1570 C.ar  415  TYR415      0.1957
     64  OH        15.2340   66.1710   68.4970 O.3   415  TYR415     -0.2866
     65  N         10.8170   71.4310   62.7450 N.3   435  ASP435     -0.1225
     66  CA        12.2510   71.3000   62.9500 C.3   435  ASP435      0.1805
     67  C         12.6940   71.5400   64.3840 C.2   435  ASP435      0.2597
     68  O         12.0430   72.2570   65.1520 O.2   435  ASP435     -0.2718
     69  CB        13.0160   72.2500   62.0320 C.3   435  ASP435      0.1424
     70  CG        13.1090   71.7400   60.6190 C.2   435  ASP435      0.3668
     71  OD1       13.3730   70.5340   60.4400 O.co2 435  ASP435     -0.2456
     72  OD2       12.9330   72.5500   59.6860 O.co2 435  ASP435     -0.2456
     73  N         13.8220   70.9380   64.7340 N.am  436  ASN436     -0.1974
     74  CA        14.3790   71.0860   66.0690 C.3   436  ASN436      0.1688
     75  C         15.8740   70.7900   65.9960 C.2   436  ASN436      0.2292
     76  O         16.4190   70.0060   66.7840 O.2   436  ASN436     -0.2864
     77  CB        13.6850   70.1200   67.0390 C.3   436  ASN436      0.1181
     78  CG        14.0090   70.4180   68.4930 C.2   436  ASN436      0.2629
     79  OD1       14.8200   71.4480   68.7260 O.2   436  ASN436     -0.2716
     80  ND2       13.5320   69.7300   69.3990 N.am  436  ASN436     -0.0877
     81  N         19.5460   70.2290   66.2760 N.3   438  THR438     -0.1218
     82  CA        20.2950   70.0630   67.5070 C.3   438  THR438      0.1862
     83  C         21.7740   69.7980   67.2180 C.2   438  THR438      0.2287
     84  O         22.1260   69.0140   66.3300 O.2   438  THR438     -0.2866
     85  CB        19.6920   68.9230   68.3330 C.3   438  THR438      0.1770
     86  OG1       18.3030   69.2050   68.5620 O.3   438  THR438     -0.2211
     87  CG2       20.4100   68.7840   69.6610 C.3   438  THR438      0.0375
@<TRIPOS>BOND
     1    72    70   ar
     2    71    70   ar
     3    70    69    1
     4    69    66    1
     5    65    66    1
     6    66    67    1
     7    67    73   am
     8    67    68    2
     9    53    54    1
    10    73    74    1
    11    55    54    1
    12    55    56    2
    13    54    57    1
    14    75    74    1
    15    75    76    2
    16    74    77    1
    17    81    82    1
    18    84    83    2
    19    57    58    1
    20    77    78    1
    21    59    58   ar
    22    59    61   ar
    23    48    49    2
    24    48    47    1
    25    83    82    1
    26    58    60   ar
    27    61    63   ar
    28    82    85    1
    29    47    46    1
    30    47    50    1
    31    60    62   ar
    32    63    62   ar
    33    63    64    1
    34    85    86    1
    35    85    87    1
    36    78    79    2
    37    78    80   am
    38    46    52    1
    39    50    51    1
    40    52    51    1
    41    42    41    1
    42    42    43    2
    43    41    44    1
    44    41    40    1
    45    44    45    1
    46    38    37   ar
    47    36    37    1
    48    36    35    1
    49    30    28   am
    50    37    39   ar
    51    32    33    1
    52    32    35    1
    53    32    31    1
    54    33    34    2
    55     1     2    1
    56     5     2    1
    57     2     3    1
    58    29    28    2
    59    28    27    1
    60    18    17    2
    61    25    24    1
    62    25    26    2
    63    24    27    1
    64    24    23    1
    65     3     6   am
    66     3     4    2
    67     6     7    1
    68    17    23   am
    69    17    16    1
    70    19    16    1
    71    19    21    1
    72    19    20    1
    73    15    16    1
    74    15    12   am
    75     7     8    1
    76     8     9    2
    77    14    11    1
    78    11    12    1
    79    11    10    1
    80    20    22    1
    81    12    13    2
