@<TRIPOS>MOLECULE
tmp/1kyaB05.pdb
 105 103 0 0 0
SMALL
GASTEIGER

@<TRIPOS>ATOM
      1  N         15.0470   95.2490   58.0290 N.3   162  PHE162     -0.1241
      2  CA        14.9970   93.8960   57.4690 C.3   162  PHE162      0.1605
      3  C         14.6350   94.0130   55.9690 C.2   162  PHE162      0.2264
      4  O         13.4660   93.9320   55.5820 O.2   162  PHE162     -0.2867
      5  CB        13.9560   93.0460   58.2170 C.3   162  PHE162      0.0534
      6  CG        14.1560   93.0100   59.7080 C.ar  162  PHE162     -0.0203
      7  CD1       15.3450   92.5390   60.2550 C.ar  162  PHE162     -0.0042
      8  CD2       13.1570   93.4520   60.5680 C.ar  162  PHE162     -0.0042
      9  CE1       15.5410   92.5090   61.6380 C.ar  162  PHE162     -0.0003
     10  CE2       13.3450   93.4260   61.9550 C.ar  162  PHE162     -0.0003
     11  CZ        14.5450   92.9500   62.4860 C.ar  162  PHE162     -0.0000
     12  N         14.5280   92.1930   53.1780 N.3   164  LEU164     -0.1245
     13  CA        13.6020   91.2870   52.5030 C.3   164  LEU164      0.1561
     14  C         13.9470   91.1310   51.0100 C.2   164  LEU164      0.2260
     15  O         13.0580   91.0810   50.1570 O.2   164  LEU164     -0.2867
     16  CB        12.1640   91.8050   52.6580 C.3   164  LEU164      0.0270
     17  CG        10.9900   90.8480   52.4180 C.3   164  LEU164      0.0019
     18  CD1       10.9850   89.7490   53.4670 C.3   164  LEU164      0.0001
     19  CD2        9.6870   91.6300   52.4810 C.3   164  LEU164      0.0001
     20  N         22.1800   87.5440   54.4710 N.3   206  ASP206     -0.1239
     21  CA        20.8060   87.0850   54.7610 C.3   206  ASP206      0.1674
     22  C         20.3940   85.8660   53.9080 C.2   206  ASP206      0.2266
     23  O         20.0570   84.7790   54.3860 O.2   206  ASP206     -0.2867
     24  CB        19.8570   88.2250   54.4960 C.3   206  ASP206      0.1410
     25  CG        18.4650   87.8270   54.9170 C.2   206  ASP206      0.3668
     26  OD1       18.2370   86.6350   55.2100 O.co2 206  ASP206     -0.2456
     27  OD2       17.5970   88.7220   54.9520 O.co2 206  ASP206     -0.2456
     28  N         14.7210   84.7040   48.5270 N.3   265  PHE265     -0.1241
     29  CA        13.8000   85.8380   48.4120 C.3   265  PHE265      0.1605
     30  C         14.5180   87.0310   47.8100 C.2   265  PHE265      0.2264
     31  O         15.7420   87.0370   47.7310 O.2   265  PHE265     -0.2867
     32  CB        13.1770   86.1880   49.7720 C.3   265  PHE265      0.0534
     33  CG        14.1670   86.6150   50.8070 C.ar  265  PHE265     -0.0203
     34  CD1       14.6090   87.9220   50.8630 C.ar  265  PHE265     -0.0042
     35  CD2       14.6500   85.7050   51.7330 C.ar  265  PHE265     -0.0042
     36  CE1       15.5230   88.3190   51.8330 C.ar  265  PHE265     -0.0003
     37  CE2       15.5640   86.0900   52.7050 C.ar  265  PHE265     -0.0003
     38  CZ        16.0020   87.3970   52.7580 C.ar  265  PHE265     -0.0000
     39  N         10.3800   87.1160   68.9800 N.3   332  PHE332     -0.1241
     40  CA        10.3940   88.3740   68.2440 C.3   332  PHE332      0.1605
     41  C          9.2230   89.2310   68.6460 C.2   332  PHE332      0.2264
     42  O          8.1030   88.7280   68.7580 O.2   332  PHE332     -0.2867
     43  CB        10.3760   88.0660   66.7480 C.3   332  PHE332      0.0534
     44  CG        10.6130   89.2550   65.8630 C.ar  332  PHE332     -0.0203
     45  CD1       11.8570   89.8860   65.8370 C.ar  332  PHE332     -0.0042
     46  CD2        9.5990   89.7280   65.0310 C.ar  332  PHE332     -0.0042
     47  CE1       12.0870   90.9660   64.9980 C.ar  332  PHE332     -0.0003
     48  CE2        9.8190   90.8100   64.1850 C.ar  332  PHE332     -0.0003
     49  CZ        11.0670   91.4280   64.1710 C.ar  332  PHE332     -0.0000
     50  N         14.9180   90.7830   68.1300 N.3   337  PHE337     -0.1241
     51  CA        14.9540   89.3350   68.3060 C.3   337  PHE337      0.1605
     52  C         15.2930   88.9260   69.7390 C.2   337  PHE337      0.2264
     53  O         15.9520   89.6670   70.4740 O.2   337  PHE337     -0.2867
     54  CB        15.9660   88.7140   67.3420 C.3   337  PHE337      0.0534
     55  CG        15.4080   88.4400   65.9800 C.ar  337  PHE337     -0.0203
     56  CD1       14.5530   87.3610   65.7730 C.ar  337  PHE337     -0.0042
     57  CD2       15.7130   89.2730   64.9060 C.ar  337  PHE337     -0.0042
     58  CE1       14.0060   87.1140   64.5140 C.ar  337  PHE337     -0.0003
     59  CE2       15.1730   89.0370   63.6460 C.ar  337  PHE337     -0.0003
     60  CZ        14.3170   87.9550   63.4510 C.ar  337  PHE337     -0.0000
     61  N         10.2910   85.3970   63.0170 N.3   391  PRO391     -0.2102
     62  CA        10.1910   85.5480   61.5600 C.3   391  PRO391      0.1504
     63  C         11.5560   85.5730   60.9020 C.2   391  PRO391      0.2576
     64  O         12.5410   85.9620   61.5210 O.2   391  PRO391     -0.2718
     65  CB         9.4710   86.8870   61.3940 C.3   391  PRO391      0.0282
     66  CG         8.7030   87.0370   62.6790 C.3   391  PRO391      0.0208
     67  CD         9.7000   86.5630   63.6960 C.3   391  PRO391      0.0893
     68  N         11.6100   85.1610   59.6430 N.am  392  GLY392     -0.1943
     69  CA        12.8760   85.1800   58.9320 C.3   392  GLY392      0.2014
     70  C         13.4850   83.8160   58.6900 C.2   392  GLY392      0.2638
     71  O         14.5580   83.7290   58.1040 O.2   392  GLY392     -0.2714
     72  N         12.8060   82.7590   59.1330 N.am  393  ALA393     -0.1977
     73  CA        13.3060   81.3970   58.9420 C.3   393  ALA393      0.1597
     74  C         13.5830   81.1150   57.4570 C.2   393  ALA393      0.2287
     75  O         12.9570   81.7020   56.5780 O.2   393  ALA393     -0.2864
     76  CB        12.3010   80.3900   59.4950 C.3   393  ALA393      0.0319
     77  N         22.3140   85.8370   59.8020 N.3   455  ILE455     -0.1245
     78  CA        21.6060   86.8000   58.9950 C.3   455  ILE455      0.1561
     79  C         21.8910   88.1110   59.7180 C.2   455  ILE455      0.2260
     80  O         21.1850   88.4690   60.6620 O.2   455  ILE455     -0.2867
     81  CB        20.0730   86.5510   58.9280 C.3   455  ILE455      0.0252
     82  CG1       19.7480   85.2830   58.1380 C.3   455  ILE455      0.0019
     83  CG2       19.3530   87.7330   58.3050 C.3   455  ILE455      0.0019
     84  CD1       18.2700   84.9940   58.0300 C.3   455  ILE455      0.0001
     85  N         21.2470   91.1580   59.6390 N.3   457  PHE457     -0.1227
     86  CA        20.1560   92.0490   60.0320 C.3   457  PHE457      0.1736
     87  C         19.4530   91.5600   61.2990 C.2   457  PHE457      0.2595
     88  O         18.8620   92.3470   62.0380 O.2   457  PHE457     -0.2718
     89  CB        19.1440   92.1780   58.8860 C.3   457  PHE457      0.0547
     90  CG        19.7450   92.7110   57.6080 C.ar  457  PHE457     -0.0202
     91  CD1       20.1680   94.0430   57.5190 C.ar  457  PHE457     -0.0042
     92  CD2       19.9230   91.8710   56.5090 C.ar  457  PHE457     -0.0042
     93  CE1       20.7630   94.5270   56.3560 C.ar  457  PHE457     -0.0003
     94  CE2       20.5170   92.3400   55.3420 C.ar  457  PHE457     -0.0003
     95  CZ        20.9410   93.6740   55.2640 C.ar  457  PHE457     -0.0000
     96  N         19.5230   90.2560   61.5470 N.am  458  HIS458     -0.1975
     97  CA        18.8980   89.6780   62.7260 C.3   458  HIS458      0.1656
     98  C         19.8710   89.7750   63.8950 C.2   458  HIS458      0.2291
     99  O         19.4490   89.9380   65.0430 O.2   458  HIS458     -0.2864
    100  CB        18.5240   88.2210   62.4700 C.3   458  HIS458      0.0771
    101  CG        17.5520   88.0340   61.3440 C.ar  458  HIS458      0.0820
    102  ND1       17.0680   86.7960   60.9770 N.ar  458  HIS458     -0.2267
    103  CD2       16.9870   88.9230   60.4930 C.ar  458  HIS458      0.1154
    104  CE1       16.2500   86.9310   59.9470 C.ar  458  HIS458      0.1986
    105  NE2       16.1850   88.2110   59.6330 N.ar  458  HIS458     -0.2212
@<TRIPOS>BOND
     1    31    30    2
     2    30    29    1
     3    29    28    1
     4    29    32    1
     5    32    33    1
     6    15    14    2
     7    33    34   ar
     8    33    35   ar
     9    34    36   ar
    10    14    13    1
    11    35    37   ar
    12    36    38   ar
    13    17    19    1
    14    17    16    1
    15    17    18    1
    16    13    16    1
    17    13    12    1
    18    37    38   ar
    19    22    23    2
    20    22    21    1
    21    20    21    1
    22    24    21    1
    23    24    25    1
    24    25    27   ar
    25    25    26   ar
    26    95    94   ar
    27    95    93   ar
    28    94    92   ar
    29     4     3    2
    30     3     2    1
    31    93    91   ar
    32    92    90   ar
    33    75    74    2
    34    74    73    1
    35     2     1    1
    36     2     5    1
    37    91    90   ar
    38    90    89    1
    39    84    82    1
    40    71    70    2
    41    82    81    1
    42     5     6    1
    43    83    81    1
    44    70    69    1
    45    70    72   am
    46    89    86    1
    47    81    78    1
    48    69    68    1
    49    73    72    1
    50    73    76    1
    51    78    79    1
    52    78    77    1
    53   105   104   ar
    54   105   103   ar
    55    85    86    1
    56    68    63   am
    57     6     7   ar
    58     6     8   ar
    59    79    80    2
    60   104   102   ar
    61    86    87    1
    62     7     9   ar
    63   103   101   ar
    64     8    10   ar
    65    63    64    2
    66    63    62    1
    67   102   101   ar
    68    87    96   am
    69    87    88    2
    70   101   100    1
    71    65    62    1
    72    65    66    1
    73    96    97    1
    74    62    61    1
    75     9    11   ar
    76    10    11   ar
    77   100    97    1
    78    66    67    1
    79    97    98    1
    80    61    67    1
    81    60    59   ar
    82    60    58   ar
    83    59    57   ar
    84    98    99    2
    85    49    48   ar
    86    49    47   ar
    87    48    46   ar
    88    58    56   ar
    89    57    55   ar
    90    47    45   ar
    91    46    44   ar
    92    56    55   ar
    93    45    44   ar
    94    44    43    1
    95    55    54    1
    96    43    40    1
    97    54    51    1
    98    50    51    1
    99    40    41    1
   100    40    39    1
   101    51    52    1
   102    41    42    2
   103    52    53    2
