@<TRIPOS>MOLECULE
tmp/1kyfA00.pdb
 105 103 0 0 0
SMALL
GASTEIGER

@<TRIPOS>ATOM
      1  N         28.5290    8.2030   -5.3890 N.3   145  PHE145     -0.1227
      2  CA        27.2930    7.7130   -5.9370 C.3   145  PHE145      0.1736
      3  C         27.5400    7.1510   -7.3210 C.2   145  PHE145      0.2595
      4  O         27.0720    6.0550   -7.6080 O.2   145  PHE145     -0.2718
      5  CB        26.2260    8.8360   -5.9790 C.3   145  PHE145      0.0547
      6  CG        24.9230    8.3400   -6.5720 C.ar  145  PHE145     -0.0202
      7  CD1       23.9610    7.8440   -5.7120 C.ar  145  PHE145     -0.0042
      8  CD2       24.6130    8.3350   -7.9250 C.ar  145  PHE145     -0.0042
      9  CE1       22.7610    7.3480   -6.2010 C.ar  145  PHE145     -0.0003
     10  CE2       23.4520    7.8400   -8.3990 C.ar  145  PHE145     -0.0003
     11  CZ        22.4790    7.3280   -7.5480 C.ar  145  PHE145     -0.0000
     12  N         28.1540    7.9150   -8.2170 N.am  146  PHE146     -0.1976
     13  CA        28.2490    7.4030   -9.6030 C.3   146  PHE146      0.1639
     14  C         29.1830    6.2090   -9.6980 C.2   146  PHE146      0.2290
     15  O         28.9980    5.3160  -10.5350 O.2   146  PHE146     -0.2864
     16  CB        28.7130    8.5190  -10.5850 C.3   146  PHE146      0.0560
     17  CG        27.5410    9.4680  -10.8030 C.ar  146  PHE146     -0.0200
     18  CD1       27.5370   10.7590  -10.3030 C.ar  146  PHE146     -0.0042
     19  CD2       26.4250    9.0270  -11.4900 C.ar  146  PHE146     -0.0042
     20  CE1       26.4110   11.5530  -10.5070 C.ar  146  PHE146     -0.0003
     21  CE2       25.3130    9.8120  -11.7340 C.ar  146  PHE146     -0.0003
     22  CZ        25.3150   11.1070  -11.2360 C.ar  146  PHE146     -0.0000
     23  N         26.8660    3.4390   -8.7180 N.3   149  TRP149     -0.1227
     24  CA        25.8970    3.2360   -9.7840 C.3   149  TRP149      0.1737
     25  C         26.4340    2.3400  -10.8940 C.2   149  TRP149      0.2595
     26  O         25.7430    1.4550  -11.3960 O.2   149  TRP149     -0.2718
     27  CB        25.4680    4.5720  -10.3430 C.3   149  TRP149      0.0564
     28  CG        24.3940    4.6250  -11.3680 C.ar  149  TRP149      0.0003
     29  CD1       24.4960    4.6840  -12.7440 C.ar  149  TRP149      0.0946
     30  CD2       22.9810    4.6260  -11.1100 C.ar  149  TRP149      0.0152
     31  NE1       23.2510    4.7160  -13.3080 N.ar  149  TRP149     -0.2442
     32  CE2       22.2940    4.6820  -12.3390 C.ar  149  TRP149      0.0810
     33  CE3       22.2400    4.5820   -9.9510 C.ar  149  TRP149      0.0012
     34  CZ2       20.8930    4.7020  -12.3870 C.ar  149  TRP149      0.0191
     35  CZ3       20.8730    4.5880   -9.9710 C.ar  149  TRP149      0.0001
     36  CH2       20.2060    4.6390  -11.2240 C.ar  149  TRP149      0.0015
     37  N         27.6950    2.5590  -11.2610 N.am  150  LYS150     -0.1980
     38  CA        28.3390    1.9060  -12.3790 C.3   150  LYS150      0.1596
     39  C         29.0020    0.5830  -12.0300 C.2   150  LYS150      0.2287
     40  O         29.6550   -0.0370  -12.9000 O.2   150  LYS150     -0.2864
     41  CB        29.3480    2.9100  -12.9690 C.3   150  LYS150      0.0298
     42  CG        28.5440    4.0560  -13.6060 C.3   150  LYS150      0.0038
     43  CD        29.4570    4.9740  -14.3960 C.3   150  LYS150      0.0206
     44  CE        28.6520    6.0870  -15.0250 C.3   150  LYS150      0.1093
     45  NZ        29.4830    6.9950  -15.8430 N.3   150  LYS150     -0.1314
     46  N         18.8040   -4.0510  -12.0740 N.3   158  GLU158     -0.1245
     47  CA        18.2810   -2.7600  -12.4780 C.3   158  GLU158      0.1567
     48  C         16.8430   -2.7990  -12.9890 C.2   158  GLU158      0.2260
     49  O         16.4710   -3.4650  -13.9260 O.2   158  GLU158     -0.2867
     50  CB        19.0120   -2.1460  -13.6930 C.3   158  GLU158      0.0388
     51  CG        18.4630   -0.7940  -14.1150 C.3   158  GLU158      0.1160
     52  CD        19.0460    0.1120  -15.1310 C.2   158  GLU158      0.3649
     53  OE1       18.8000   -0.2130  -16.3170 O.co2 158  GLU158     -0.2457
     54  OE2       19.7250    1.1660  -14.9150 O.co2 158  GLU158     -0.2457
     55  N         23.4260   15.5290   -7.0870 N.3   189  VAL189     -0.1231
     56  CA        23.9490   14.3390   -7.7790 C.3   189  VAL189      0.1692
     57  C         23.4840   14.3290   -9.2260 C.2   189  VAL189      0.2592
     58  O         24.2880   14.3760  -10.1510 O.2   189  VAL189     -0.2718
     59  CB        23.6070   13.0530   -7.0190 C.3   189  VAL189      0.0266
     60  CG1       24.0790   11.8000   -7.7460 C.3   189  VAL189      0.0020
     61  CG2       24.2190   13.1250   -5.5970 C.3   189  VAL189      0.0020
     62  N         22.1860   14.2840   -9.4610 N.am  190  ASP190     -0.1960
     63  CA        21.6990   14.4790  -10.8360 C.3   190  ASP190      0.1825
     64  C         21.8870   15.9330  -11.2230 C.2   190  ASP190      0.2464
     65  O         21.3420   16.7870  -10.5110 O.2   190  ASP190     -0.2730
     66  CB        20.2450   14.0260  -10.9320 C.3   190  ASP190      0.1450
     67  CG        19.6840   13.9790  -12.3420 C.2   190  ASP190      0.3671
     68  OD1       20.1340   14.7860  -13.1830 O.co2 190  ASP190     -0.2456
     69  OD2       18.8000   13.1520  -12.6230 O.co2 190  ASP190     -0.2456
     70  N         22.5970   16.2540  -12.3210 N.am  191  PRO191     -0.2727
     71  CA        22.7360   17.6800  -12.6710 C.3   191  PRO191      0.1402
     72  C         21.4320   18.4000  -12.9890 C.2   191  PRO191      0.2269
     73  O         21.4220   19.6340  -12.9610 O.2   191  PRO191     -0.2865
     74  CB        23.6330   17.6540  -13.9080 C.3   191  PRO191      0.0296
     75  CG        24.2800   16.3330  -13.9120 C.3   191  PRO191      0.0237
     76  CD        23.3290   15.3600  -13.2400 C.3   191  PRO191      0.0939
     77  N         17.3360   11.8900   -6.3380 N.3   197  VAL197     -0.1245
     78  CA        18.2140   10.7530   -6.2020 C.3   197  VAL197      0.1561
     79  C         18.2270   10.2190   -4.7820 C.2   197  VAL197      0.2260
     80  O         18.2650   11.0290   -3.8730 O.2   197  VAL197     -0.2867
     81  CB        19.6470   11.1570   -6.6390 C.3   197  VAL197      0.0252
     82  CG1       20.6350   10.0200   -6.4780 C.3   197  VAL197      0.0019
     83  CG2       19.6420   11.6340   -8.0930 C.3   197  VAL197      0.0019
     84  N         16.6870    6.7260   -8.6680 N.3   214  ARG214     -0.1245
     85  CA        16.5600    7.9610   -9.4150 C.3   214  ARG214      0.1563
     86  C         15.0930    8.1100   -9.8250 C.2   214  ARG214      0.2260
     87  O         14.5410    7.1420  -10.3220 O.2   214  ARG214     -0.2867
     88  CB        17.4270    7.9830  -10.6740 C.3   214  ARG214      0.0307
     89  CG        17.4720    9.3280  -11.4030 C.3   214  ARG214      0.0489
     90  CD        18.1420    9.0840  -12.7440 C.3   214  ARG214      0.2205
     91  NE        18.3930   10.3600  -13.4150 N.pl3 214  ARG214     -0.0865
     92  CZ        18.7680   10.4080  -14.6950 C.cat 214  ARG214      0.5346
     93  NH1       18.9120    9.2810  -15.3950 N.pl3 214  ARG214      0.1354
     94  NH2       18.9890   11.5970  -15.2230 N.pl3 214  ARG214      0.1354
     95  N         18.6170    0.6100   -8.7940 N.3   229  ARG229     -0.1245
     96  CA        19.7900   -0.2240   -8.9590 C.3   229  ARG229      0.1563
     97  C         20.1980   -0.7000   -7.5650 C.2   229  ARG229      0.2260
     98  O         20.5360    0.1280   -6.7330 O.2   229  ARG229     -0.2867
     99  CB        20.9640    0.4930   -9.6380 C.3   229  ARG229      0.0307
    100  CG        20.7710    0.6830  -11.1240 C.3   229  ARG229      0.0489
    101  CD        21.9790    1.2670  -11.7880 C.3   229  ARG229      0.2205
    102  NE        21.7760    1.4110  -13.2390 N.pl3 229  ARG229     -0.0865
    103  CZ        22.7910    1.4450  -14.0730 C.cat 229  ARG229      0.5346
    104  NH1       24.0540    1.3730  -13.7160 N.pl3 229  ARG229      0.1354
    105  NH2       22.4890    1.5630  -15.3770 N.pl3 229  ARG229      0.1354
@<TRIPOS>BOND
     1    53    52   ar
     2    45    44    1
     3    93    92    1
     4   105   103    1
     5    94    92    1
     6    52    54   ar
     7    52    51    1
     8    44    43    1
     9    92    91    2
    10    43    42    1
    11    51    50    1
    12   103   104    1
    13   103   102    2
    14    49    48    2
    15    75    74    1
    16    75    76    1
    17    74    71    1
    18    50    47    1
    19    42    41    1
    20    91    90    1
    21    31    29   ar
    22    31    32   ar
    23    76    70    1
    24   102   101    1
    25    68    67   ar
    26    72    73    2
    27    72    71    1
    28    48    47    1
    29    41    38    1
    30    40    39    2
    31    90    89    1
    32    29    28   ar
    33    71    70    1
    34    69    67   ar
    35    47    46    1
    36    34    32   ar
    37    34    36   ar
    38    38    39    1
    39    38    37    1
    40    67    66    1
    41    32    30   ar
    42    70    64   am
    43   101   100    1
    44    21    19   ar
    45    21    22   ar
    46    19    17   ar
    47    89    88    1
    48    26    25    2
    49    28    30   ar
    50    28    27    1
    51    37    25   am
    52    22    20   ar
    53    36    35   ar
    54    64    63    1
    55    64    65    2
    56   100    99    1
    57    30    33   ar
    58    66    63    1
    59    25    24    1
    60    63    62    1
    61    17    16    1
    62    17    18   ar
    63    88    85    1
    64    16    13    1
    65    15    14    2
    66    20    18   ar
    67    27    24    1
    68    87    86    2
    69    58    57    2
    70    35    33   ar
    71    86    85    1
    72    24    23    1
    73    14    13    1
    74    99    96    1
    75    13    12    1
    76    62    57   am
    77    85    84    1
    78    57    56    1
    79    96    95    1
    80    96    97    1
    81    10     8   ar
    82    10    11   ar
    83    12     3   am
    84    83    81    1
    85     8     6   ar
    86    56    55    1
    87    56    59    1
    88    60    59    1
    89     4     3    2
    90    97    98    2
    91    11     9   ar
    92     3     2    1
    93    59    61    1
    94    81    82    1
    95    81    78    1
    96     6     5    1
    97     6     7   ar
    98    77    78    1
    99    78    79    1
   100     9     7   ar
   101     5     2    1
   102     2     1    1
   103    79    80    2
