@<TRIPOS>MOLECULE
tmp/1kyiG00.pdb
 140 133 0 0 0
SMALL
GASTEIGER

@<TRIPOS>ATOM
      1  N        179.9950   85.7390   78.8260 N.3     1  THR1       -0.1218
      2  CA       181.2970   86.2920   79.2650 C.3     1  THR1        0.1862
      3  C        182.4500   85.2980   78.9970 C.2     1  THR1        0.2287
      4  O        182.2960   84.3590   78.2320 O.2     1  THR1       -0.2866
      5  CB       181.2110   86.6370   80.7670 C.3     1  THR1        0.1770
      6  OG1      179.8490   86.5570   81.2200 O.3     1  THR1       -0.2211
      7  CG2      181.7580   88.0380   81.0030 C.3     1  THR1        0.0375
      8  N        181.7110   92.5110   79.5200 N.3    19  GLN19      -0.1231
      9  CA       180.6400   92.7650   78.5910 C.3    19  GLN19       0.1698
     10  C        179.3020   92.1720   78.9690 C.2    19  GLN19       0.2592
     11  O        179.0890   90.9680   78.8830 O.2    19  GLN19      -0.2718
     12  CB       181.0620   92.2870   77.1870 C.3    19  GLN19       0.0381
     13  CG       180.1790   92.8120   76.0440 C.3    19  GLN19       0.0905
     14  CD       180.2050   91.9010   74.8330 C.2    19  GLN19       0.2608
     15  OE1      179.2920   91.0920   74.6180 O.2    19  GLN19      -0.2717
     16  NE2      181.2660   92.0160   74.0410 N.am   19  GLN19      -0.0878
     17  N        178.3830   93.0160   79.3850 N.am   20  VAL20      -0.1966
     18  CA       177.0540   92.5200   79.6920 C.3    20  VAL20       0.1727
     19  C        176.2650   92.6090   78.3820 C.2    20  VAL20       0.2617
     20  O        175.9840   93.7110   77.8870 O.2    20  VAL20      -0.2715
     21  CB       176.3760   93.3930   80.7250 C.3    20  VAL20       0.0290
     22  CG1      174.9990   92.8570   81.0070 C.3    20  VAL20       0.0023
     23  CG2      177.2010   93.4310   81.9770 C.3    20  VAL20       0.0023
     24  N        175.8960   91.4690   77.8160 N.am   21  SER21      -0.1936
     25  CA       175.1880   91.4930   76.5450 C.3    21  SER21       0.2055
     26  C        173.7500   91.0270   76.5580 C.2    21  SER21       0.2643
     27  O        173.4570   89.8670   76.8260 O.2    21  SER21      -0.2714
     28  CB       175.9730   90.6960   75.4950 C.3    21  SER21       0.2130
     29  OG       176.8910   89.7940   76.0980 O.3    21  SER21      -0.2179
     30  N        172.8520   91.9440   76.2360 N.am   22  LEU22      -0.1963
     31  CA       171.4200   91.6580   76.1900 C.3    22  LEU22       0.1728
     32  C        171.0370   91.3280   74.7390 C.2    22  LEU22       0.2616
     33  O        170.9540   92.2190   73.8840 O.2    22  LEU22      -0.2715
     34  CB       170.6500   92.8840   76.6920 C.3    22  LEU22       0.0311
     35  CG       169.2230   93.0680   76.2040 C.3    22  LEU22       0.0022
     36  CD1      168.4190   91.8900   76.6050 C.3    22  LEU22       0.0001
     37  CD2      168.6390   94.3420   76.7680 C.3    22  LEU22       0.0001
     38  N        170.8080   90.0470   74.4600 N.am   23  GLY23      -0.1955
     39  CA       170.4850   89.6500   73.1000 C.3    23  GLY23       0.1869
     40  C        171.7760   89.7440   72.3200 C.2    23  GLY23       0.2309
     41  O        172.7990   89.2710   72.7930 O.2    23  GLY23      -0.2863
     42  N        174.8210   96.0050   76.3960 N.3    27  MET27      -0.1245
     43  CA       174.3310   96.9760   77.3490 C.3    27  MET27       0.1570
     44  C        175.4300   97.6700   78.1320 C.2    27  MET27       0.2261
     45  O        175.4520   98.8970   78.2230 O.2    27  MET27      -0.2867
     46  CB       173.3730   96.3220   78.3260 C.3    27  MET27       0.0387
     47  CG       173.0380   97.2160   79.5020 C.3    27  MET27       0.0595
     48  SD       171.7080   96.5080   80.4610 S.3    27  MET27      -0.1393
     49  CE       170.2820   96.8300   79.2820 C.3    27  MET27       0.0692
     50  N        181.6360   95.9940   83.0240 N.3    31  ALA31      -0.1245
     51  CA       181.1590   95.1760   84.1370 C.3    31  ALA31       0.1562
     52  C        182.2720   94.4700   84.8940 C.2    31  ALA31       0.2260
     53  O        183.2300   94.0030   84.2860 O.2    31  ALA31      -0.2867
     54  CB       180.1960   94.1550   83.6350 C.3    31  ALA31       0.0290
     55  N        183.1910   91.3170   86.4580 N.3    33  LYS33      -0.1245
     56  CA       182.7250   89.9590   86.6410 C.3    33  LYS33       0.1561
     57  C        183.5300   89.1380   87.6270 C.2    33  LYS33       0.2260
     58  O        183.2790   87.9430   87.7810 O.2    33  LYS33      -0.2867
     59  CB       182.6780   89.2440   85.2980 C.3    33  LYS33       0.0271
     60  CG       182.1520   90.1230   84.1710 C.3    33  LYS33       0.0035
     61  CD       181.5970   89.2940   83.0690 C.3    33  LYS33       0.0206
     62  CE       182.0610   89.8420   81.7700 C.3    33  LYS33       0.1093
     63  NZ       182.4000   91.2780   81.9410 N.3    33  LYS33      -0.1314
     64  N        182.1000   85.1770   87.9670 N.3    46  PHE46      -0.1227
     65  CA       180.8720   84.5020   87.5620 C.3    46  PHE46       0.1736
     66  C        180.3780   84.7040   86.1460 C.2    46  PHE46       0.2595
     67  O        180.4010   85.8040   85.6340 O.2    46  PHE46      -0.2718
     68  CB       179.7330   84.8710   88.5090 C.3    46  PHE46       0.0547
     69  CG       179.7050   86.3140   88.9070 C.ar   46  PHE46      -0.0202
     70  CD1      180.3710   86.7430   90.0560 C.ar   46  PHE46      -0.0042
     71  CD2      178.9670   87.2330   88.1740 C.ar   46  PHE46      -0.0042
     72  CE1      180.2890   88.0640   90.4870 C.ar   46  PHE46      -0.0003
     73  CE2      178.8720   88.5670   88.5870 C.ar   46  PHE46      -0.0003
     74  CZ       179.5390   88.9820   89.7530 C.ar   46  PHE46      -0.0000
     75  N        179.8880   83.6260   85.5500 N.am   47  ALA47      -0.1966
     76  CA       179.3540   83.6390   84.2030 C.3    47  ALA47       0.1728
     77  C        177.9090   83.2000   84.2720 C.2    47  ALA47       0.2617
     78  O        177.4350   82.8050   85.3340 O.2    47  ALA47      -0.2715
     79  CB       180.1280   82.6790   83.3360 C.3    47  ALA47       0.0334
     80  N        177.2170   83.2310   83.1360 N.am   48  GLY48      -0.1940
     81  CA       175.8180   82.8450   83.1210 C.3    48  GLY48       0.2014
     82  C        174.9370   84.0830   83.1420 C.2    48  GLY48       0.2639
     83  O        175.4380   85.1880   82.9050 O.2    48  GLY48      -0.2714
     84  N        173.6410   83.9210   83.4150 N.am   49  GLY49      -0.1939
     85  CA       172.7520   85.0710   83.4650 C.3    49  GLY49       0.2014
     86  C        173.0420   85.9990   84.6410 C.2    49  GLY49       0.2639
     87  O        173.2760   85.5390   85.7540 O.2    49  GLY49      -0.2714
     88  N        173.0180   87.3090   84.4070 N.am   50  THR50      -0.1950
     89  CA       173.3190   88.2870   85.4550 C.3    50  THR50       0.1897
     90  C        172.7290   88.0190   86.8350 C.2    50  THR50       0.2313
     91  O        173.4700   87.7290   87.7710 O.2    50  THR50      -0.2863
     92  CB       172.9180   89.7220   85.0410 C.3    50  THR50       0.1794
     93  OG1      171.5050   89.7920   84.8090 O.3    50  THR50      -0.2208
     94  CG2      173.6620   90.1300   83.7940 C.3    50  THR50       0.0378
     95  N        173.6110   84.6830   88.3260 N.3    53  ALA53      -0.1231
     96  CA       175.0300   84.7680   88.6070 C.3    53  ALA53       0.1694
     97  C        175.1640   85.4610   89.9720 C.2    53  ALA53       0.2592
     98  O        175.8140   84.9530   90.8780 O.2    53  ALA53      -0.2718
     99  CB       175.7310   85.5650   87.5160 C.3    53  ALA53       0.0304
    100  N        174.5140   86.6050   90.1310 N.am   54  PHE54      -0.1976
    101  CA       174.5880   87.2970   91.4070 C.3    54  PHE54       0.1639
    102  C        174.0280   86.4980   92.5770 C.2    54  PHE54       0.2290
    103  O        174.7020   86.3670   93.5930 O.2    54  PHE54      -0.2864
    104  CB       173.9050   88.6650   91.3460 C.3    54  PHE54       0.0560
    105  CG       174.8340   89.7730   90.9640 C.ar   54  PHE54      -0.0200
    106  CD1      175.2490   89.9250   89.6450 C.ar   54  PHE54      -0.0042
    107  CD2      175.3370   90.6400   91.9290 C.ar   54  PHE54      -0.0042
    108  CE1      176.1590   90.9280   89.2820 C.ar   54  PHE54      -0.0003
    109  CE2      176.2470   91.6490   91.5900 C.ar   54  PHE54      -0.0003
    110  CZ       176.6600   91.7930   90.2570 C.ar   54  PHE54      -0.0000
    111  N        170.7700   79.5600   86.5440 N.3    92  GLU92      -0.1245
    112  CA       171.5560   79.4770   85.3240 C.3    92  GLU92       0.1567
    113  C        172.8170   80.3440   85.4670 C.2    92  GLU92       0.2260
    114  O        172.8670   81.4400   84.8930 O.2    92  GLU92      -0.2867
    115  CB       170.7480   79.9540   84.1140 C.3    92  GLU92       0.0388
    116  CG       171.3030   79.4580   82.7770 C.3    92  GLU92       0.1160
    117  CD       171.1960   80.4830   81.6600 C.2    92  GLU92       0.3649
    118  OE1      170.1050   81.0690   81.4920 O.co2  92  GLU92      -0.2457
    119  OE2      172.2030   80.6980   80.9440 O.co2  92  GLU92      -0.2457
    120  N        182.1320   80.4340   80.9230 N.3   124  GLY124     -0.1210
    121  CA       181.5820   81.4730   80.0690 C.3   124  GLY124      0.1956
    122  C        181.6040   81.0100   78.6290 C.2   124  GLY124      0.2612
    123  O        182.2800   80.0260   78.3220 O.2   124  GLY124     -0.2717
    124  N        180.8670   81.6900   77.7510 N.am  125  SER125     -0.1952
    125  CA       180.8260   81.3340   76.3350 C.3   125  SER125      0.1924
    126  C        182.2340   81.2920   75.7780 C.2   125  SER125      0.2314
    127  O        182.5670   80.3590   75.0400 O.2   125  SER125     -0.2863
    128  CB       179.9910   82.3350   75.5620 C.3   125  SER125      0.2116
    129  OG       180.3540   83.6470   75.9280 O.3   125  SER125     -0.2180
    130  N        180.7730   87.8390   72.5360 N.3   162  PHE162     -0.1241
    131  CA       180.1250   88.1890   73.7930 C.3   162  PHE162      0.1605
    132  C        181.0960   88.6110   74.8840 C.2   162  PHE162      0.2264
    133  O        180.6870   89.0210   75.9650 O.2   162  PHE162     -0.2867
    134  CB       179.3060   87.0110   74.2360 C.3   162  PHE162      0.0534
    135  CG       178.1060   86.7740   73.3720 C.ar  162  PHE162     -0.0203
    136  CD1      177.2010   87.8210   73.1250 C.ar  162  PHE162     -0.0042
    137  CD2      177.7960   85.4770   72.9030 C.ar  162  PHE162     -0.0042
    138  CE1      175.9860   87.5730   72.4270 C.ar  162  PHE162     -0.0003
    139  CE2      176.5810   85.2180   72.2010 C.ar  162  PHE162     -0.0003
    140  CZ       175.6830   86.2690   71.9740 C.ar  162  PHE162     -0.0000
@<TRIPOS>BOND
     1   140   139   ar
     2   140   138   ar
     3   139   137   ar
     4    40    41    2
     5    40    39    1
     6   138   136   ar
     7   130   131    1
     8   137   135   ar
     9    39    38    1
    10   136   135   ar
    11   135   134    1
    12   131   134    1
    13   131   132    1
    14    33    32    2
    15    16    14   am
    16    38    32   am
    17    15    14    2
    18    32    31    1
    19    14    13    1
    20   132   133    2
    21   127   126    2
    22    28    29    1
    23    28    25    1
    24   128   129    1
    25   128   125    1
    26   126   125    1
    27    13    12    1
    28    31    30    1
    29    31    34    1
    30    35    36    1
    31    35    34    1
    32    35    37    1
    33    30    26   am
    34   125   124    1
    35    42    43    1
    36    25    26    1
    37    25    24    1
    38    26    27    2
    39    12     9    1
    40    43    44    1
    41    43    46    1
    42   124   122   am
    43    24    19   am
    44    20    19    2
    45    44    45    2
    46     4     3    2
    47   123   122    2
    48    46    47    1
    49    19    18    1
    50     9    10    1
    51     9     8    1
    52   122   121    1
    53     1     2    1
    54    11    10    2
    55    10    17   am
    56     3     2    1
    57     2     5    1
    58    49    48    1
    59    17    18    1
    60    47    48    1
    61    18    21    1
    62   121   120    1
    63    21    22    1
    64    21    23    1
    65     5     7    1
    66     5     6    1
    67   119   117   ar
    68   118   117   ar
    69   117   116    1
    70    62    63    1
    71    62    61    1
    72   116   115    1
    73    83    82    2
    74    50    51    1
    75    61    60    1
    76    81    80    1
    77    81    82    1
    78    80    77   am
    79    82    84   am
    80    79    76    1
    81    84    85    1
    82    85    86    1
    83    54    51    1
    84    94    92    1
    85   115   112    1
    86    51    52    1
    87    60    59    1
    88    76    77    1
    89    76    75    1
    90    77    78    2
    91    53    52    2
    92    88    86   am
    93    88    89    1
    94    86    87    2
    95    93    92    1
    96   114   113    2
    97    92    89    1
    98    59    56    1
    99   112   113    1
   100   112   111    1
   101    89    90    1
   102    75    66   am
   103    67    66    2
   104    66    65    1
   105    55    56    1
   106    56    57    1
   107    90    91    2
   108    99    96    1
   109    65    64    1
   110    65    68    1
   111    57    58    2
   112    71    73   ar
   113    71    69   ar
   114    95    96    1
   115    68    69    1
   116    73    74   ar
   117    96    97    1
   118    69    70   ar
   119   108   106   ar
   120   108   110   ar
   121   106   105   ar
   122    74    72   ar
   123    97   100   am
   124    97    98    2
   125    70    72   ar
   126   100   101    1
   127   110   109   ar
   128   105   104    1
   129   105   107   ar
   130   104   101    1
   131   101   102    1
   132   109   107   ar
   133   102   103    2
