@<TRIPOS>MOLECULE
tmp/1kynB00.pdb
 161 154 0 0 0
SMALL
GASTEIGER

@<TRIPOS>ATOM
      1  N         57.3740   -8.1740   11.9120 N.3    21  GLN21      -0.1245
      2  CA        57.4220   -6.9480   11.1220 C.3    21  GLN21       0.1566
      3  C         56.8650   -7.1710    9.7180 C.2    21  GLN21       0.2260
      4  O         57.3450   -6.5720    8.7570 O.2    21  GLN21      -0.2867
      5  CB        58.8680   -6.4560   11.0210 C.3    21  GLN21       0.0367
      6  CG        59.0080   -4.9670   10.7460 C.3    21  GLN21       0.0905
      7  CD        60.4140   -4.5720   10.3100 C.2    21  GLN21       0.2608
      8  OE1       60.6570   -3.4260    9.9210 O.2    21  GLN21      -0.2717
      9  NE2       61.3470   -5.5230   10.3720 N.am   21  GLN21      -0.0878
     10  N         59.7120   -7.5090   13.6630 N.3    28  ARG28      -0.1231
     11  CA        60.2850   -6.3490   14.3360 C.3    28  ARG28       0.1694
     12  C         59.2610   -5.2490   14.6130 C.2    28  ARG28       0.2592
     13  O         58.7310   -4.6320   13.6910 O.2    28  ARG28      -0.2718
     14  CB        61.4330   -5.7650   13.5100 C.3    28  ARG28       0.0321
     15  CG        62.1970   -4.6500   14.2080 C.3    28  ARG28       0.0489
     16  CD        63.6440   -5.0440   14.4890 C.3    28  ARG28       0.2205
     17  NE        64.5880   -4.0120   14.0620 N.pl3  28  ARG28      -0.0865
     18  CZ        64.6070   -2.7690   14.5350 C.cat  28  ARG28       0.5346
     19  NH1       63.7310   -2.3900   15.4570 N.pl3  28  ARG28       0.1354
     20  NH2       65.5000   -1.8990   14.0800 N.pl3  28  ARG28       0.1354
     21  N         58.9930   -5.0150   15.8950 N.am   29  CYS29      -0.1970
     22  CA        58.0570   -3.9880   16.3420 C.3    29  CYS29       0.1712
     23  C         58.2290   -3.7590   17.8420 C.2    29  CYS29       0.2296
     24  O         58.7950   -4.5950   18.5480 O.2    29  CYS29      -0.2864
     25  CB        56.6140   -4.4020   16.0490 C.3    29  CYS29       0.0983
     26  SG        55.8980   -3.6240   14.5660 S.3    29  CYS29      -0.0798
     27  N         48.9350   -2.0790   13.9870 N.3    44  HIS44      -0.1241
     28  CA        49.4790   -2.3920   12.6720 C.3    44  HIS44       0.1621
     29  C         50.6690   -3.3450   12.7340 C.2    44  HIS44       0.2264
     30  O         51.1540   -3.8110   11.7020 O.2    44  HIS44      -0.2867
     31  CB        49.8700   -1.1050   11.9410 C.3    44  HIS44       0.0745
     32  CG        51.1760   -0.5260   12.3810 C.ar   44  HIS44       0.0817
     33  ND1       51.2600    0.4940   13.3040 N.ar   44  HIS44      -0.2268
     34  CD2       52.4470   -0.8050   12.0110 C.ar   44  HIS44       0.1154
     35  CE1       52.5290    0.8170   13.4840 C.ar   44  HIS44       0.1986
     36  NE2       53.2690    0.0440   12.7100 N.ar   44  HIS44      -0.2212
     37  N         40.0570    0.0460   13.9180 N.3    80  TYR80      -0.1241
     38  CA        41.3690    0.4140   13.3990 C.3    80  TYR80       0.1605
     39  C         41.3170    0.6510   11.8920 C.2    80  TYR80       0.2264
     40  O         41.2560   -0.2960   11.1060 O.2    80  TYR80      -0.2867
     41  CB        42.3990   -0.6800   13.7040 C.3    80  TYR80       0.0534
     42  CG        43.6400   -0.5990   12.8340 C.ar   80  TYR80      -0.0201
     43  CD1       44.4380    0.5470   12.8240 C.ar   80  TYR80      -0.0009
     44  CD2       44.0030   -1.6590   12.0030 C.ar   80  TYR80      -0.0009
     45  CE1       45.5650    0.6370   12.0060 C.ar   80  TYR80       0.0417
     46  CE2       45.1290   -1.5790   11.1820 C.ar   80  TYR80       0.0417
     47  CZ        45.9020   -0.4290   11.1890 C.ar   80  TYR80       0.1957
     48  OH        47.0060   -0.3420   10.3720 O.3    80  TYR80      -0.2866
     49  N         42.7870    1.5000    8.3270 N.3    82  GLN82      -0.1245
     50  CA        44.0680    1.2750    7.6700 C.3    82  GLN82       0.1566
     51  C         44.4140    2.4080    6.7070 C.2    82  GLN82       0.2260
     52  O         45.5730    2.5840    6.3280 O.2    82  GLN82      -0.2867
     53  CB        44.0360   -0.0540    6.9160 C.3    82  GLN82       0.0367
     54  CG        45.3870   -0.5110    6.4090 C.3    82  GLN82       0.0905
     55  CD        45.7760   -1.8700    6.9450 C.2    82  GLN82       0.2608
     56  OE1       46.7530   -2.0030    7.6820 O.2    82  GLN82      -0.2717
     57  NE2       45.0100   -2.8920    6.5790 N.am   82  GLN82      -0.0878
     58  N         44.4790    5.4530    9.4240 N.3    85  ILE85      -0.1245
     59  CA        45.3510    5.0000   10.4990 C.3    85  ILE85       0.1561
     60  C         44.8510    5.4620   11.8630 C.2    85  ILE85       0.2260
     61  O         45.6290    5.9320   12.6960 O.2    85  ILE85      -0.2867
     62  CB        46.7950    5.5140   10.3100 C.3    85  ILE85       0.0252
     63  CG1       47.2440    5.3170    8.8610 C.3    85  ILE85       0.0019
     64  CG2       47.7240    4.7870   11.2620 C.3    85  ILE85       0.0019
     65  CD1       47.9560    6.5200    8.2770 C.3    85  ILE85       0.0001
     66  N         44.9220    3.0070   16.1310 N.3    88  ASP88      -0.1239
     67  CA        46.0850    2.1570   15.9250 C.3    88  ASP88       0.1674
     68  C         46.6040    1.6440   17.2620 C.2    88  ASP88       0.2266
     69  O         47.6300    2.1050   17.7610 O.2    88  ASP88      -0.2867
     70  CB        47.1870    2.9380   15.2060 C.3    88  ASP88       0.1410
     71  CG        48.2420    2.0340   14.6050 C.2    88  ASP88       0.3668
     72  OD1       48.0250    0.8050   14.5850 O.co2  88  ASP88      -0.2456
     73  OD2       49.2860    2.5500   14.1520 O.co2  88  ASP88      -0.2456
     74  N         61.2380    8.9280   17.1080 N.3   176  ALA176     -0.1231
     75  CA        61.0150    7.5130   16.8270 C.3   176  ALA176      0.1694
     76  C         61.0370    7.3210   15.3170 C.2   176  ALA176      0.2592
     77  O         60.7800    8.2600   14.5630 O.2   176  ALA176     -0.2718
     78  CB        59.6740    7.0680   17.3930 C.3   176  ALA176      0.0304
     79  N         61.3370    6.1060   14.8720 N.am  177  PHE177     -0.1962
     80  CA        61.3960    5.8290   13.4440 C.3   177  PHE177      0.1771
     81  C         61.0040    4.3940   13.1040 C.2   177  PHE177      0.2619
     82  O         60.2730    3.7430   13.8490 O.2   177  PHE177     -0.2715
     83  CB        62.8090    6.1210   12.9230 C.3   177  PHE177      0.0574
     84  CG        62.8780    6.3410   11.4360 C.ar  177  PHE177     -0.0200
     85  CD1       61.8640    7.0220   10.7690 C.ar  177  PHE177     -0.0042
     86  CD2       63.9530    5.8530   10.7000 C.ar  177  PHE177     -0.0042
     87  CE1       61.9170    7.2120    9.3920 C.ar  177  PHE177     -0.0003
     88  CE2       64.0150    6.0380    9.3210 C.ar  177  PHE177     -0.0003
     89  CZ        62.9930    6.7200    8.6670 C.ar  177  PHE177     -0.0000
     90  N         61.4920    3.9150   11.9650 N.am  178  LYS178     -0.1963
     91  CA        61.2240    2.5630   11.4930 C.3   178  LYS178      0.1728
     92  C         61.7240    1.5420   12.5150 C.2   178  LYS178      0.2616
     93  O         62.9110    1.5090   12.8400 O.2   178  LYS178     -0.2715
     94  CB        61.9320    2.3480   10.1520 C.3   178  LYS178      0.0311
     95  CG        61.3020    1.3240    9.2240 C.3   178  LYS178      0.0038
     96  CD        61.7240    1.5850    7.7790 C.3   178  LYS178      0.0206
     97  CE        60.9460    0.7370    6.7790 C.3   178  LYS178      0.1093
     98  NZ        59.7390    0.1000    7.3700 N.3   178  LYS178     -0.1314
     99  N         60.8150    0.7140   13.0180 N.am  179  GLY179     -0.1955
    100  CA        61.1850   -0.2950   13.9920 C.3   179  GLY179      0.1869
    101  C         60.7490    0.0600   15.3990 C.2   179  GLY179      0.2309
    102  O         60.7970   -0.7770   16.3000 O.2   179  GLY179     -0.2863
    103  N         57.6780    1.4060   15.9520 N.3   181  SER181     -0.1217
    104  CA        56.2270    1.2540   15.9680 C.3   181  SER181      0.1889
    105  C         55.7720    0.2970   17.0630 C.2   181  SER181      0.2288
    106  O         56.0500   -0.9000   17.0070 O.2   181  SER181     -0.2866
    107  CB        55.7390    0.7510   14.6110 C.3   181  SER181      0.2089
    108  OG        55.1060    1.7860   13.8850 O.3   181  SER181     -0.2183
    109  N         54.0180    4.6990   19.4870 N.3   195  VAL195     -0.1231
    110  CA        54.5170    5.0960   18.1760 C.3   195  VAL195      0.1692
    111  C         53.6280    4.5360   17.0740 C.2   195  VAL195      0.2593
    112  O         53.5940    3.3260   16.8410 O.2   195  VAL195     -0.2718
    113  CB        55.9610    4.5980   17.9390 C.3   195  VAL195      0.0266
    114  CG1       56.6100    5.4040   16.8240 C.3   195  VAL195      0.0020
    115  CG2       56.7720    4.7170   19.2180 C.3   195  VAL195      0.0020
    116  N         52.9040    5.4250   16.4010 N.am  196  SER196     -0.1938
    117  CA        52.0130    5.0290   15.3190 C.3   196  SER196      0.2055
    118  C         52.7230    5.1800   13.9820 C.2   196  SER196      0.2643
    119  O         53.2680    4.2170   13.4490 O.2   196  SER196     -0.2714
    120  CB        50.7490    5.8920   15.3340 C.3   196  SER196      0.2130
    121  OG        49.8620    5.5200   14.2940 O.3   196  SER196     -0.2179
    122  N         52.7140    6.3990   13.4520 N.am  197  TYR197     -0.1959
    123  CA        53.3540    6.6900   12.1760 C.3   197  TYR197      0.1771
    124  C         53.9970    8.0720   12.1800 C.2   197  TYR197      0.2620
    125  O         54.0130    8.7560   13.2030 O.2   197  TYR197     -0.2715
    126  CB        52.3350    6.5970   11.0360 C.3   197  TYR197      0.0574
    127  CG        51.2070    7.6060   11.1140 C.ar  197  TYR197     -0.0198
    128  CD1       49.9710    7.2580   11.6570 C.ar  197  TYR197     -0.0009
    129  CD2       51.3660    8.9000   10.6160 C.ar  197  TYR197     -0.0009
    130  CE1       48.9180    8.1700   11.7000 C.ar  197  TYR197      0.0417
    131  CE2       50.3210    9.8200   10.6540 C.ar  197  TYR197      0.0417
    132  CZ        49.1000    9.4480   11.1960 C.ar  197  TYR197      0.1957
    133  OH        48.0600   10.3510   11.2210 O.3   197  TYR197     -0.2866
    134  N         54.5260    8.4730   11.0280 N.am  198  GLY198     -0.1940
    135  CA        55.1650    9.7720   10.9050 C.3   198  GLY198      0.2014
    136  C         55.7410    9.9730    9.5160 C.2   198  GLY198      0.2639
    137  O         55.5370    9.1410    8.6310 O.2   198  GLY198     -0.2714
    138  N         56.4560   11.0760    9.3130 N.am  199  LYS199     -0.1963
    139  CA        57.0600   11.3580    8.0150 C.3   199  LYS199      0.1728
    140  C         58.0980   10.2840    7.7100 C.2   199  LYS199      0.2616
    141  O         59.0240   10.0720    8.4910 O.2   199  LYS199     -0.2715
    142  CB        57.7310   12.7330    8.0280 C.3   199  LYS199      0.0311
    143  CG        56.8980   13.8250    8.6830 C.3   199  LYS199      0.0038
    144  CD        56.4750   14.8800    7.6710 C.3   199  LYS199      0.0206
    145  CE        56.8210   16.2840    8.1460 C.3   199  LYS199      0.1093
    146  NZ        58.0880   16.3250    8.9270 N.3   199  LYS199     -0.1314
    147  N         57.9440    9.6080    6.5760 N.am  200  SER200     -0.1950
    148  CA        58.8730    8.5510    6.1920 C.3   200  SER200      0.1924
    149  C         60.3100    9.0510    6.1180 C.2   200  SER200      0.2314
    150  O         61.2280    8.2840    5.8270 O.2   200  SER200     -0.2863
    151  CB        58.4710    7.9460    4.8450 C.3   200  SER200      0.2116
    152  OG        58.8070    6.5680    4.7980 O.3   200  SER200     -0.2180
    153  N         55.9100   13.8060   14.9470 N.3   206  GLU206     -0.1245
    154  CA        55.4080   12.4930   14.5670 C.3   206  GLU206      0.1567
    155  C         54.1020   12.2040   15.2960 C.2   206  GLU206      0.2260
    156  O         53.7740   12.8590   16.2860 O.2   206  GLU206     -0.2867
    157  CB        56.4320   11.4030   14.8970 C.3   206  GLU206      0.0388
    158  CG        57.5570   11.8470   15.8140 C.3   206  GLU206      0.1160
    159  CD        58.4930   10.7100   16.1710 C.2   206  GLU206      0.3649
    160  OE1       58.6360    9.7790   15.3500 O.co2 206  GLU206     -0.2457
    161  OE2       59.0840   10.7450   17.2710 O.co2 206  GLU206     -0.2457
@<TRIPOS>BOND
     1   152   151    1
     2   151   148    1
     3   150   149    2
     4   149   148    1
     5   148   147    1
     6    52    51    2
     7    54    53    1
     8    54    55    1
     9   147   140   am
    10    57    55   am
    11    51    50    1
    12    97    98    1
    13    97    96    1
    14    53    50    1
    15    55    56    2
    16    50    49    1
    17   144   145    1
    18   144   143    1
    19   140   139    1
    20   140   141    2
    21    96    95    1
    22   139   142    1
    23   139   138    1
    24   142   143    1
    25   145   146    1
    26    65    63    1
    27   137   136    2
    28    89    88   ar
    29    89    87   ar
    30     4     3    2
    31    63    62    1
    32    95    94    1
    33   138   136   am
    34    88    86   ar
    35    87    85   ar
    36    58    59    1
    37   136   135    1
    38     3     2    1
    39     8     7    2
    40    94    91    1
    41    62    59    1
    42    62    64    1
    43     7     9   am
    44     7     6    1
    45    48    47    1
    46    59    60    1
    47   129   131   ar
    48   129   127   ar
    49   131   132   ar
    50    86    84   ar
    51     6     5    1
    52    85    84   ar
    53   135   134    1
    54     5     2    1
    55   134   124   am
    56   126   127    1
    57   126   123    1
    58    40    39    2
    59   127   128   ar
    60     2     1    1
    61    46    47   ar
    62    46    44   ar
    63    47    45   ar
    64   132   133    1
    65   132   130   ar
    66    84    83    1
    67    91    90    1
    68    91    92    1
    69   128   130   ar
    70    30    29    2
    71    60    61    2
    72    39    38    1
    73    31    32    1
    74    31    28    1
    75    90    81   am
    76    44    42   ar
    77    45    43   ar
    78    34    32   ar
    79    34    36   ar
    80   123   124    1
    81   123   122    1
    82   124   125    2
    83    32    33   ar
    84    92    93    2
    85    92    99   am
    86    28    29    1
    87    28    27    1
    88    36    35   ar
    89    43    42   ar
    90    42    41    1
    91    83    80    1
    92    99   100    1
    93    81    80    1
    94    81    82    2
    95    33    35   ar
    96    38    41    1
    97    38    37    1
    98    80    79    1
    99   119   118    2
   100   122   118   am
   101    14    15    1
   102    14    11    1
   103    10    11    1
   104    13    12    2
   105   108   107    1
   106   118   117    1
   107   100   101    1
   108    17    16    1
   109    17    18    2
   110    20    18    1
   111    73    71   ar
   112    15    16    1
   113   121   120    1
   114    11    12    1
   115    18    19    1
   116    77    76    2
   117    26    25    1
   118   154   157    1
   119   154   153    1
   120   154   155    1
   121    72    71   ar
   122    71    70    1
   123   107   104    1
   124    12    21   am
   125    79    76   am
   126   157   158    1
   127    70    67    1
   128   155   156    2
   129    76    75    1
   130   117   120    1
   131   117   116    1
   132   160   159   ar
   133   101   102    2
   134   158   159    1
   135    21    22    1
   136    67    66    1
   137    67    68    1
   138   103   104    1
   139   104   105    1
   140    25    22    1
   141   159   161   ar
   142    22    23    1
   143   116   111   am
   144   114   113    1
   145    75    74    1
   146    75    78    1
   147   112   111    2
   148   106   105    2
   149   111   110    1
   150    68    69    2
   151    23    24    2
   152   113   110    1
   153   113   115    1
   154   110   109    1
