@<TRIPOS>MOLECULE
tmp/1kyqB00.pdb
 161 158 0 0 0
SMALL
GASTEIGER

@<TRIPOS>ATOM
      1  N         13.4770   18.0820   25.7370 N.3    18  ILE18      -0.1231
      2  CA        12.1780   17.5620   25.3160 C.3    18  ILE18       0.1692
      3  C         12.2840   16.8400   23.9830 C.2    18  ILE18       0.2593
      4  O         12.6030   17.4170   22.9320 O.2    18  ILE18      -0.2718
      5  CB        11.1540   18.7050   25.2450 C.3    18  ILE18       0.0266
      6  CG1       11.0520   19.3910   26.6270 C.3    18  ILE18       0.0019
      7  CG2        9.7910   18.2310   24.7830 C.3    18  ILE18       0.0020
      8  CD1       10.5790   20.8250   26.5600 C.3    18  ILE18       0.0001
      9  N         12.0710   15.5240   24.0260 N.am   19  GLY19      -0.1942
     10  CA        12.1440   14.6620   22.8550 C.3    19  GLY19       0.2014
     11  C         13.3050   13.6810   23.0230 C.2    19  GLY19       0.2639
     12  O         14.4570   14.1290   23.1290 O.2    19  GLY19      -0.2714
     13  N         13.0020   12.3850   23.1160 N.am   20  GLY20      -0.1939
     14  CA        14.0820   11.4240   23.3510 C.3    20  GLY20       0.2014
     15  C         14.3410   10.4840   22.1900 C.2    20  GLY20       0.2639
     16  O         14.4910    9.2720   22.4160 O.2    20  GLY20      -0.2714
     17  N         14.4220   10.9860   20.9610 N.am   21  GLY21      -0.1939
     18  CA        14.6190   10.1220   19.8060 C.3    21  GLY21       0.2014
     19  C         16.0290   10.2050   19.2520 C.2    21  GLY21       0.2639
     20  O         17.0080   10.3840   19.9820 O.2    21  GLY21      -0.2714
     21  N         16.1330   10.1450   17.9240 N.am   22  GLU22      -0.1963
     22  CA        17.4490   10.2340   17.2930 C.3    22  GLU22       0.1733
     23  C         18.1380   11.5610   17.5920 C.2    22  GLU22       0.2616
     24  O         19.3170   11.5570   17.9410 O.2    22  GLU22      -0.2715
     25  CB        17.3730   10.0430   15.7780 C.3    22  GLU22       0.0429
     26  CG        16.6660    8.7430   15.4040 C.3    22  GLU22       0.1163
     27  CD        17.5810    7.5380   15.4160 C.2    22  GLU22       0.3649
     28  OE1       18.7930    7.6470   15.7160 O.co2  22  GLU22      -0.2457
     29  OE2       17.0840    6.4300   15.1060 O.co2  22  GLU22      -0.2457
     30  N         17.4190   12.6700   17.4520 N.am   23  VAL23      -0.1963
     31  CA        18.0590   13.9580   17.7350 C.3    23  VAL23       0.1727
     32  C         18.2900   14.0580   19.2360 C.2    23  VAL23       0.2616
     33  O         19.4170   14.3720   19.6220 O.2    23  VAL23      -0.2715
     34  CB        17.2950   15.1400   17.1390 C.3    23  VAL23       0.0290
     35  CG1       17.9650   16.4820   17.4390 C.3    23  VAL23       0.0023
     36  CG2       17.2520   14.9480   15.6200 C.3    23  VAL23       0.0023
     37  N         17.3240   13.6430   20.0550 N.am   24  GLY24      -0.1955
     38  CA        17.5100   13.6580   21.4970 C.3    24  GLY24       0.1869
     39  C         18.7920   12.9780   21.9460 C.2    24  GLY24       0.2309
     40  O         19.5570   13.4460   22.8030 O.2    24  GLY24      -0.2863
     41  N         12.1150   14.7920   28.8800 N.3    40  VAL40      -0.1231
     42  CA        10.6830   14.6020   28.7330 C.3    40  VAL40       0.1692
     43  C         10.3850   14.0090   27.3560 C.2    40  VAL40       0.2593
     44  O         10.6370   14.6320   26.3320 O.2    40  VAL40      -0.2718
     45  CB         9.8600   15.8870   28.9110 C.3    40  VAL40       0.0266
     46  CG1        8.3740   15.5550   28.8310 C.3    40  VAL40       0.0020
     47  CG2       10.1760   16.6120   30.2110 C.3    40  VAL40       0.0020
     48  N          9.8390   12.7910   27.3540 N.am   41  SER41      -0.1939
     49  CA         9.5200   12.0730   26.1290 C.3    41  SER41       0.2040
     50  C          8.6660   10.8480   26.3910 C.2    41  SER41       0.2485
     51  O          8.9820   10.0310   27.2600 O.2    41  SER41      -0.2729
     52  CB        10.8600   11.6440   25.5020 C.3    41  SER41       0.2129
     53  OG        10.6300   11.1930   24.1810 O.3    41  SER41      -0.2179
     54  N          7.6070   10.6310   25.6150 N.am   42  PRO42      -0.2715
     55  CA         6.7270    9.4800   25.7850 C.3    42  PRO42       0.1536
     56  C          7.4130    8.1870   25.4080 C.2    42  PRO42       0.2599
     57  O          7.1110    7.1130   25.9360 O.2    42  PRO42      -0.2715
     58  CB         5.5330    9.7960   24.8870 C.3    42  PRO42       0.0310
     59  CG         6.1600   10.5840   23.7740 C.3    42  PRO42       0.0237
     60  CD         7.1920   11.4630   24.4610 C.3    42  PRO42       0.0939
     61  N          8.3550    8.2140   24.4740 N.am   43  ASP43      -0.1958
     62  CA         9.1010    7.0430   24.0570 C.3    43  ASP43       0.1840
     63  C         10.5820    7.4080   24.0190 C.2    43  ASP43       0.2621
     64  O         10.9040    8.5930   23.9130 O.2    43  ASP43      -0.2715
     65  CB         8.6940    6.5460   22.6670 C.3    43  ASP43       0.1450
     66  CG         7.2210    6.2100   22.5980 C.2    43  ASP43       0.3671
     67  OD1        6.7780    5.3180   23.3360 O.co2  43  ASP43      -0.2456
     68  OD2        6.4820    6.8960   21.8690 O.co2  43  ASP43      -0.2456
     69  N         11.4580    6.4150   24.0760 N.am   44  LEU44      -0.1977
     70  CA        12.8780    6.6870   24.0380 C.3    44  LEU44       0.1596
     71  C         13.6200    5.8600   22.9960 C.2    44  LEU44       0.2287
     72  O         13.3030    4.7040   22.7560 O.2    44  LEU44      -0.2864
     73  CB        13.5350    6.3900   25.3930 C.3    44  LEU44       0.0297
     74  CG        13.1740    7.2990   26.5690 C.3    44  LEU44       0.0022
     75  CD1       13.7950    6.7710   27.8530 C.3    44  LEU44       0.0001
     76  CD2       13.5820    8.7390   26.3050 C.3    44  LEU44       0.0001
     77  N          6.2130   11.0880   28.9140 N.3    89  SER89      -0.1202
     78  CA         5.0140   11.8050   28.5000 C.3    89  SER89       0.2020
     79  C          5.3630   12.8390   27.4400 C.2    89  SER89       0.2619
     80  O          6.5230   13.2110   27.3130 O.2    89  SER89      -0.2717
     81  CB         4.5030   12.5560   29.7330 C.3    89  SER89       0.2103
     82  OG         3.4300   13.4240   29.5210 O.3    89  SER89      -0.2182
     83  N          4.3320   13.2890   26.7480 N.am   90  ASP90      -0.1959
     84  CA         4.4700   14.4440   25.8900 C.3    90  ASP90       0.1840
     85  C          4.6550   15.6190   26.8800 C.2    90  ASP90       0.2622
     86  O          4.1380   15.6090   28.0070 O.2    90  ASP90      -0.2715
     87  CB         3.2130   14.7680   25.1020 C.3    90  ASP90       0.1450
     88  CG         2.9620   13.8420   23.9370 C.2    90  ASP90       0.3671
     89  OD1        3.9030   13.2530   23.3870 O.co2  90  ASP90      -0.2456
     90  OD2        1.7790   13.7210   23.5570 O.co2  90  ASP90      -0.2456
     91  N          5.3580   16.6180   26.3720 N.am   91  PHE91      -0.1974
     92  CA         5.5500   17.8000   27.2040 C.3    91  PHE91       0.1639
     93  C          4.2000   18.3550   27.6410 C.2    91  PHE91       0.2290
     94  O          3.2460   18.4680   26.8770 O.2    91  PHE91      -0.2864
     95  CB         6.3490   18.8380   26.4060 C.3    91  PHE91       0.0560
     96  CG         6.4360   20.1540   27.1340 C.ar   91  PHE91      -0.0200
     97  CD1        7.4520   20.3680   28.0510 C.ar   91  PHE91      -0.0042
     98  CD2        5.4880   21.1300   26.9150 C.ar   91  PHE91      -0.0042
     99  CE1        7.5370   21.5690   28.7100 C.ar   91  PHE91      -0.0003
    100  CE2        5.5810   22.3320   27.5900 C.ar   91  PHE91      -0.0003
    101  CZ         6.5810   22.5380   28.5220 C.ar   91  PHE91      -0.0000
    102  N         13.4170   18.6390   20.6140 N.3   110  CYS110     -0.1221
    103  CA        13.7070   17.8710   19.4100 C.3   110  CYS110      0.1808
    104  C         12.5840   16.8600   19.2170 C.2   110  CYS110      0.2601
    105  O         12.7710   15.6590   19.2990 O.2   110  CYS110     -0.2717
    106  CB        15.0600   17.2060   19.3700 C.3   110  CYS110      0.0970
    107  SG        15.7480   16.8280   20.9900 S.3   110  CYS110     -0.0800
    108  N         11.4070   17.3850   18.9300 N.am  111  ILE111     -0.1966
    109  CA        10.2280   16.5570   18.7120 C.3   111  ILE111      0.1712
    110  C          9.7410   16.8170   17.2900 C.2   111  ILE111      0.2458
    111  O         10.0850   17.8300   16.6900 O.2   111  ILE111     -0.2730
    112  CB         9.1010   16.8660   19.7100 C.3   111  ILE111      0.0289
    113  CG1        8.7020   18.3440   19.6050 C.3   111  ILE111      0.0022
    114  CG2        9.5260   16.5430   21.1430 C.3   111  ILE111      0.0023
    115  CD1        7.4490   18.7020   20.3820 C.3   111  ILE111      0.0001
    116  N          8.9790   15.8860   16.7280 N.am  112  PRO112     -0.2716
    117  CA         8.4960   16.0020   15.3650 C.3   112  PRO112      0.1536
    118  C          7.3660   16.9920   15.2010 C.2   112  PRO112      0.2598
    119  O          6.9380   17.1950   14.0660 O.2   112  PRO112     -0.2715
    120  CB         7.9970   14.6140   14.9960 C.3   112  PRO112      0.0310
    121  CG         8.3560   13.7120   16.1200 C.3   112  PRO112      0.0237
    122  CD         8.6460   14.5720   17.3200 C.3   112  PRO112      0.0939
    123  N          6.8090   17.5900   16.2390 N.am  113  ASP113     -0.1972
    124  CA         5.7130   18.5480   16.0540 C.3   113  ASP113      0.1709
    125  C          6.2440   19.9750   16.0480 C.2   113  ASP113      0.2293
    126  O          6.6590   20.5090   17.0870 O.2   113  ASP113     -0.2864
    127  CB         4.7440   18.2380   17.1810 C.3   113  ASP113      0.1436
    128  CG         3.4490   19.0000   17.1970 C.2   113  ASP113      0.3671
    129  OD1        3.3140   20.0270   16.5100 O.co2 113  ASP113     -0.2456
    130  OD2        2.5490   18.5510   17.9500 O.co2 113  ASP113     -0.2456
    131  N          3.9320   22.6890   17.9960 N.3   116  GLU116     -0.1245
    132  CA         4.0960   22.4660   19.4250 C.3   116  GLU116      0.1567
    133  C          5.4720   22.9160   19.9030 C.2   116  GLU116      0.2260
    134  O          5.5820   23.4920   20.9870 O.2   116  GLU116     -0.2867
    135  CB         3.8440   21.0020   19.8150 C.3   116  GLU116      0.0388
    136  CG         4.1260   20.6370   21.2630 C.3   116  GLU116      0.1160
    137  CD         3.2270   21.3150   22.2700 C.2   116  GLU116      0.3649
    138  OE1        2.3170   22.0890   21.8890 O.co2 116  GLU116     -0.2457
    139  OE2        3.3770   21.1060   23.5010 O.co2 116  GLU116     -0.2457
    140  N         15.4820   22.0820   17.8560 N.3   137  ALA137     -0.1231
    141  CA        16.3120   21.4270   16.8540 C.3   137  ALA137      0.1694
    142  C         15.9140   21.7180   15.4140 C.2   137  ALA137      0.2592
    143  O         14.7680   21.5700   14.9790 O.2   137  ALA137     -0.2718
    144  CB        16.3080   19.9140   17.0360 C.3   137  ALA137      0.0304
    145  N         16.9240   22.0920   14.6260 N.am  138  ASP138     -0.1960
    146  CA        16.7940   22.3210   13.2000 C.3   138  ASP138      0.1840
    147  C         15.8720   23.4610   12.8230 C.2   138  ASP138      0.2621
    148  O         15.5060   23.5850   11.6460 O.2   138  ASP138     -0.2715
    149  CB        16.3290   21.0120   12.5170 C.3   138  ASP138      0.1450
    150  CG        17.3370   19.8920   12.7400 C.2   138  ASP138      0.3671
    151  OD1       18.5520   20.1320   12.5350 O.co2 138  ASP138     -0.2456
    152  OD2       16.9580   18.7690   13.1370 O.co2 138  ASP138     -0.2456
    153  N         15.5240   24.3660   13.7260 N.am  139  LYS139     -0.1977
    154  CA        14.6690   25.5120   13.4520 C.3   139  LYS139      0.1596
    155  C         15.4290   26.7600   13.8960 C.2   139  LYS139      0.2287
    156  O         15.2670   27.2610   15.0080 O.2   139  LYS139     -0.2864
    157  CB        13.3250   25.3850   14.1620 C.3   139  LYS139      0.0298
    158  CG        12.5330   24.1260   13.8360 C.3   139  LYS139      0.0038
    159  CD        12.1790   24.0680   12.3470 C.3   139  LYS139      0.0206
    160  CE        11.4080   22.8040   12.0090 C.3   139  LYS139      0.1093
    161  NZ        10.9810   22.8080   10.5720 N.3   139  LYS139     -0.1314
@<TRIPOS>BOND
     1   161   160    1
     2   148   147    2
     3   160   159    1
     4   159   158    1
     5   149   150    1
     6   149   146    1
     7   151   150   ar
     8   150   152   ar
     9   147   146    1
    10   147   153   am
    11   146   145    1
    12   154   153    1
    13   154   155    1
    14   154   157    1
    15   158   157    1
    16   155   156    2
    17   119   118    2
    18   145   142   am
    19   143   142    2
    20   120   117    1
    21   120   121    1
    22    29    27   ar
    23   118   117    1
    24   118   123   am
    25   117   116    1
    26    26    27    1
    27    26    25    1
    28   142   141    1
    29    27    28   ar
    30    36    34    1
    31    25    22    1
    32   125   124    1
    33   125   126    2
    34   124   123    1
    35   124   127    1
    36   121   122    1
    37   129   128   ar
    38   111   110    2
    39   116   110   am
    40   116   122    1
    41   141   144    1
    42   141   140    1
    43    34    35    1
    44    34    31    1
    45   127   128    1
    46   128   130   ar
    47   110   109    1
    48    22    23    1
    49    22    21    1
    50    30    23   am
    51    30    31    1
    52    23    24    2
    53    31    32    1
    54    21    19   am
    55   131   132    1
    56   109   108    1
    57   109   112    1
    58   108   104   am
    59   104   105    2
    60   104   103    1
    61    32    33    2
    62    32    37   am
    63    19    18    1
    64    19    20    2
    65   106   103    1
    66   106   107    1
    67   103   102    1
    68   132   135    1
    69   132   133    1
    70   113   112    1
    71   113   115    1
    72   112   114    1
    73    18    17    1
    74   135   136    1
    75   133   134    2
    76    37    38    1
    77    17    15   am
    78   136   137    1
    79    38    39    1
    80    68    66   ar
    81   138   137   ar
    82    39    40    2
    83    15    16    2
    84    15    14    1
    85   137   139   ar
    86    66    65    1
    87    66    67   ar
    88    65    62    1
    89    72    71    2
    90    10    11    1
    91    10     9    1
    92     4     3    2
    93    71    70    1
    94    11    13   am
    95    11    12    2
    96    13    14    1
    97    89    88   ar
    98    90    88   ar
    99    59    60    1
   100    59    58    1
   101    64    63    2
   102    88    87    1
   103     3     9   am
   104     3     2    1
   105    63    62    1
   106    63    69   am
   107    70    69    1
   108    70    73    1
   109    62    61    1
   110    53    52    1
   111    60    54    1
   112    61    56   am
   113     7     5    1
   114    58    55    1
   115    87    84    1
   116     5     2    1
   117     5     6    1
   118     2     1    1
   119    73    74    1
   120    56    55    1
   121    56    57    2
   122    52    49    1
   123    54    55    1
   124    54    50   am
   125    84    83    1
   126    84    85    1
   127    49    50    1
   128    49    48    1
   129    76    74    1
   130    44    43    2
   131    91    85   am
   132    91    92    1
   133    50    51    2
   134    95    96    1
   135    95    92    1
   136     8     6    1
   137    74    75    1
   138    83    79   am
   139    94    93    2
   140    85    86    2
   141    98    96   ar
   142    98   100   ar
   143    96    97   ar
   144    92    93    1
   145    80    79    2
   146    48    43   am
   147    43    42    1
   148    79    78    1
   149   100   101   ar
   150    97    99   ar
   151    78    77    1
   152    78    81    1
   153   101    99   ar
   154    42    41    1
   155    42    45    1
   156    46    45    1
   157    45    47    1
   158    82    81    1
