@<TRIPOS>MOLECULE
tmp/1kyqA00.pdb
 137 135 0 0 0
SMALL
GASTEIGER

@<TRIPOS>ATOM
      1  N         29.8860   45.7240   31.9910 N.3    18  ILE18      -0.1231
      2  CA        30.2160   46.6610   33.0670 C.3    18  ILE18       0.1692
      3  C         31.7190   46.7010   33.2690 C.2    18  ILE18       0.2593
      4  O         32.3100   45.7010   33.6700 O.2    18  ILE18      -0.2718
      5  CB        29.4880   46.2710   34.3620 C.3    18  ILE18       0.0266
      6  CG1       27.9670   46.2770   34.1250 C.3    18  ILE18       0.0019
      7  CG2       29.8430   47.2000   35.5210 C.3    18  ILE18       0.0020
      8  CD1       27.1910   45.4150   35.1070 C.3    18  ILE18       0.0001
      9  N         32.3280   47.8570   33.0390 N.am   19  GLY19      -0.1942
     10  CA        33.7810   48.0030   33.1530 C.3    19  GLY19       0.2014
     11  C         34.3750   48.2260   31.7640 C.2    19  GLY19       0.2639
     12  O         34.3840   47.2990   30.9550 O.2    19  GLY19      -0.2714
     13  N         34.8410   49.4430   31.4570 N.am   20  GLY20      -0.1939
     14  CA        35.3680   49.7050   30.1170 C.3    20  GLY20       0.2014
     15  C         36.8810   49.8770   30.1020 C.2    20  GLY20       0.2639
     16  O         37.4170   50.8060   29.4940 O.2    20  GLY20      -0.2714
     17  N         37.6030   48.9690   30.7360 N.am   21  GLY21      -0.1939
     18  CA        39.0590   49.0860   30.8070 C.3    21  GLY21       0.2014
     19  C         39.7040   48.0940   29.8530 C.2    21  GLY21       0.2639
     20  O         39.1420   47.7180   28.8240 O.2    21  GLY21      -0.2714
     21  N         40.8680   47.6070   30.2400 N.am   22  GLU22      -0.1963
     22  CA        41.5850   46.6130   29.4610 C.3    22  GLU22       0.1733
     23  C         40.8070   45.3310   29.2140 C.2    22  GLU22       0.2616
     24  O         40.7330   44.8060   28.1040 O.2    22  GLU22      -0.2715
     25  CB        42.8400   46.2150   30.2480 C.3    22  GLU22       0.0429
     26  CG        44.0430   46.0920   29.3190 C.3    22  GLU22       0.1163
     27  CD        45.0230   47.2000   29.6800 C.2    22  GLU22       0.3649
     28  OE1       45.6660   46.9970   30.7410 O.co2  22  GLU22      -0.2457
     29  OE2       45.1190   48.2200   28.9820 O.co2  22  GLU22      -0.2457
     30  N         40.2800   44.7360   30.2870 N.am   23  VAL23      -0.1977
     31  CA        39.5000   43.5010   30.1390 C.3    23  VAL23       0.1596
     32  C         38.2330   43.7960   29.3440 C.2    23  VAL23       0.2287
     33  O         37.9470   43.1320   28.3450 O.2    23  VAL23      -0.2864
     34  CB        39.1940   42.8480   31.4890 C.3    23  VAL23       0.0276
     35  CG1       38.2580   41.6520   31.3290 C.3    23  VAL23       0.0022
     36  CG2       40.5030   42.4150   32.1620 C.3    23  VAL23       0.0022
     37  N         28.8150   50.1810   30.7190 N.3    40  VAL40      -0.1231
     38  CA        28.7090   51.0570   31.8870 C.3    40  VAL40       0.1692
     39  C         30.1000   51.2120   32.4910 C.2    40  VAL40       0.2593
     40  O         30.7470   50.2090   32.8020 O.2    40  VAL40      -0.2718
     41  CB        27.6980   50.5330   32.9180 C.3    40  VAL40       0.0266
     42  CG1       27.6840   51.4060   34.1620 C.3    40  VAL40       0.0020
     43  CG2       26.2850   50.4490   32.3420 C.3    40  VAL40       0.0020
     44  N         30.5990   52.4490   32.5370 N.am   41  SER41      -0.1939
     45  CA        31.9440   52.7070   33.0500 C.3    41  SER41       0.2040
     46  C         32.2080   54.1940   33.2440 C.2    41  SER41       0.2485
     47  O         32.0360   54.9880   32.3190 O.2    41  SER41      -0.2729
     48  CB        32.9590   52.1470   32.0500 C.3    41  SER41       0.2129
     49  OG        34.2110   51.9500   32.6930 O.3    41  SER41      -0.2179
     50  N         32.7690   54.5710   34.3900 N.am   42  PRO42      -0.2715
     51  CA        33.1170   55.9600   34.6640 C.3    42  PRO42       0.1536
     52  C         34.1980   56.4440   33.7130 C.2    42  PRO42       0.2598
     53  O         34.1500   57.5920   33.2670 O.2    42  PRO42      -0.2715
     54  CB        33.5600   55.9780   36.1200 C.3    42  PRO42       0.0310
     55  CG        34.0100   54.5810   36.3880 C.3    42  PRO42       0.0237
     56  CD        33.2330   53.6720   35.4720 C.3    42  PRO42       0.0939
     57  N         35.1670   55.6000   33.3870 N.am   43  ASP43      -0.1972
     58  CA        36.2430   55.9430   32.4730 C.3    43  ASP43       0.1709
     59  C         36.4240   54.8440   31.4240 C.2    43  ASP43       0.2293
     60  O         36.1160   53.6840   31.6990 O.2    43  ASP43      -0.2864
     61  CB        37.5860   56.1400   33.1970 C.3    43  ASP43       0.1436
     62  CG        37.6080   57.4370   33.9840 C.2    43  ASP43       0.3671
     63  OD1       37.3930   58.5080   33.3660 O.co2  43  ASP43      -0.2456
     64  OD2       37.7300   57.3940   35.2260 O.co2  43  ASP43      -0.2456
     65  N         38.9940   52.7790   28.4400 N.3    45  HIS45      -0.1241
     66  CA        40.3510   52.5610   27.9150 C.3    45  HIS45       0.1621
     67  C         40.3510   53.4270   26.6450 C.2    45  HIS45       0.2264
     68  O         39.3410   53.4510   25.9230 O.2    45  HIS45      -0.2867
     69  CB        40.6320   51.1250   27.5760 C.3    45  HIS45       0.0745
     70  CG        41.8410   50.7800   26.7710 C.ar   45  HIS45       0.0817
     71  ND1       41.9980   51.0960   25.4340 N.ar   45  HIS45      -0.2268
     72  CD2       42.9530   50.0830   27.1230 C.ar   45  HIS45       0.1154
     73  CE1       43.1580   50.6200   25.0180 C.ar   45  HIS45       0.1986
     74  NE2       43.7570   50.0020   26.0100 N.ar   45  HIS45      -0.2212
     75  N         29.4790   56.2260   34.2430 N.3    78  SER78      -0.1202
     76  CA        29.1410   56.1350   35.6490 C.3    78  SER78       0.2020
     77  C         29.5930   54.7960   36.2170 C.2    78  SER78       0.2619
     78  O         29.8120   53.8390   35.4640 O.2    78  SER78      -0.2717
     79  CB        27.6170   56.2350   35.7850 C.3    78  SER78       0.2103
     80  OG        27.1860   55.9120   37.0960 O.3    78  SER78      -0.2182
     81  N         29.7290   54.7270   37.5350 N.am   79  ASP79      -0.1959
     82  CA        29.9370   53.4260   38.1740 C.3    79  ASP79       0.1840
     83  C         28.5740   52.7270   38.0420 C.2    79  ASP79       0.2622
     84  O         27.5800   53.4390   37.9020 O.2    79  ASP79      -0.2715
     85  CB        30.2760   53.4870   39.6460 C.3    79  ASP79       0.1450
     86  CG        31.7110   53.8550   39.9360 C.2    79  ASP79       0.3671
     87  OD1       32.5510   53.7530   39.0160 O.co2  79  ASP79      -0.2456
     88  OD2       31.9800   54.2370   41.1000 O.co2  79  ASP79      -0.2456
     89  N         28.5810   51.4080   38.0520 N.am   80  PHE80      -0.1974
     90  CA        27.3180   50.6850   37.8660 C.3    80  PHE80       0.1639
     91  C         26.3160   51.0630   38.9350 C.2    80  PHE80       0.2290
     92  O         26.6510   51.1390   40.1100 O.2    80  PHE80      -0.2864
     93  CB        27.6460   49.1800   37.9420 C.3    80  PHE80       0.0560
     94  CG        26.3800   48.3690   38.0000 C.ar   80  PHE80      -0.0200
     95  CD1       25.7150   48.0770   36.8210 C.ar   80  PHE80      -0.0042
     96  CD2       25.8310   47.9710   39.2090 C.ar   80  PHE80      -0.0042
     97  CE1       24.5400   47.3640   36.8380 C.ar   80  PHE80      -0.0003
     98  CE2       24.6440   47.2560   39.2290 C.ar   80  PHE80      -0.0003
     99  CZ        24.0070   46.9460   38.0500 C.ar   80  PHE80      -0.0000
    100  N         33.7070   43.5150   34.2870 N.3    99  CYS99      -0.1221
    101  CA        35.1560   43.5670   34.1280 C.3    99  CYS99       0.1808
    102  C         35.7290   44.7080   34.9670 C.2    99  CYS99       0.2601
    103  O         36.4040   45.5720   34.4090 O.2    99  CYS99      -0.2717
    104  CB        35.5260   43.9140   32.6690 C.3    99  CYS99       0.0970
    105  SG        34.7050   42.9080   31.4560 S.3    99  CYS99      -0.0800
    106  N         35.3910   44.8000   36.2380 N.am  100  ILE100     -0.1966
    107  CA        35.8040   45.8940   37.1030 C.3   100  ILE100      0.1712
    108  C         36.7530   45.3620   38.1580 C.2   100  ILE100      0.2458
    109  O         36.7730   44.1580   38.4130 O.2   100  ILE100     -0.2730
    110  CB        34.5980   46.5710   37.7860 C.3   100  ILE100      0.0289
    111  CG1       33.8670   45.6250   38.7380 C.3   100  ILE100      0.0022
    112  CG2       33.6810   47.1190   36.6990 C.3   100  ILE100      0.0023
    113  CD1       32.6960   46.2260   39.4900 C.3   100  ILE100      0.0001
    114  N         37.5720   46.2260   38.7430 N.am  101  PRO101     -0.2716
    115  CA        38.5730   45.7820   39.6970 C.3   101  PRO101      0.1536
    116  C         38.0480   45.4420   41.0760 C.2   101  PRO101      0.2598
    117  O         38.7180   44.6810   41.7850 O.2   101  PRO101     -0.2715
    118  CB        39.6060   46.8960   39.7180 C.3   101  PRO101      0.0310
    119  CG        39.0530   48.0370   38.9500 C.3   101  PRO101      0.0237
    120  CD        37.6960   47.6640   38.4200 C.3   101  PRO101      0.0939
    121  N         36.9080   45.9200   41.5190 N.am  102  ASP102     -0.1972
    122  CA        36.3300   45.6390   42.8280 C.3   102  ASP102      0.1709
    123  C         35.6430   44.2860   42.9240 C.2   102  ASP102      0.2293
    124  O         34.6050   44.0980   42.2850 O.2   102  ASP102     -0.2864
    125  CB        35.3500   46.7900   43.0210 C.3   102  ASP102      0.1436
    126  CG        34.6520   46.9690   44.3330 C.2   102  ASP102      0.3671
    127  OD1       34.6010   46.0760   45.1920 O.co2 102  ASP102     -0.2456
    128  OD2       34.0820   48.0900   44.4960 O.co2 102  ASP102     -0.2456
    129  N         31.9500   44.1960   44.7420 N.3   105  GLU105     -0.1245
    130  CA        30.9550   44.8290   43.8880 C.3   105  GLU105      0.1567
    131  C         30.6530   43.9070   42.7050 C.2   105  GLU105      0.2260
    132  O         29.5060   43.8060   42.2830 O.2   105  GLU105     -0.2867
    133  CB        31.4070   46.1960   43.3760 C.3   105  GLU105      0.0388
    134  CG        30.4330   46.8840   42.4350 C.3   105  GLU105      0.1160
    135  CD        29.1710   47.3390   43.1060 C.2   105  GLU105      0.3649
    136  OE1       28.2130   47.8520   42.4860 O.co2 105  GLU105     -0.2457
    137  OE2       29.0560   47.1560   44.3460 O.co2 105  GLU105     -0.2457
@<TRIPOS>BOND
     1    73    71   ar
     2    73    74   ar
     3    71    70   ar
     4    68    67    2
     5    74    72   ar
     6    67    66    1
     7    70    72   ar
     8    70    69    1
     9    69    66    1
    10    66    65    1
    11    24    23    2
    12    33    32    2
    13    20    19    2
    14    29    27   ar
    15    23    22    1
    16    23    30   am
    17    26    27    1
    18    26    25    1
    19    32    31    1
    20    22    21    1
    21    22    25    1
    22    16    15    2
    23    27    28   ar
    24    19    21   am
    25    19    18    1
    26    15    14    1
    27    15    17   am
    28    14    13    1
    29    31    30    1
    30    31    34    1
    31    37    38    1
    32    17    18    1
    33    12    11    2
    34    35    34    1
    35    59    60    2
    36    59    58    1
    37   105   104    1
    38    13    11   am
    39    34    36    1
    40    11    10    1
    41    38    39    1
    42    38    41    1
    43     1     2    1
    44    48    49    1
    45    48    45    1
    46    47    46    2
    47    43    41    1
    48    58    61    1
    49    58    57    1
    50    39    44   am
    51    39    40    2
    52    44    45    1
    53   104   101    1
    54    41    42    1
    55     9    10    1
    56     9     3   am
    57    45    46    1
    58     2     3    1
    59     2     5    1
    60    61    62    1
    61    46    50   am
    62    53    52    2
    63     3     4    2
    64    63    62   ar
    65    57    52   am
    66    52    51    1
    67    62    64   ar
    68     6     5    1
    69     6     8    1
    70   101   100    1
    71   101   102    1
    72    75    76    1
    73     5     7    1
    74    50    51    1
    75    50    56    1
    76   103   102    2
    77    51    54    1
    78   102   106   am
    79    78    77    2
    80    56    55    1
    81    76    79    1
    82    76    77    1
    83    79    80    1
    84    54    55    1
    85    77    81   am
    86   106   107    1
    87   112   110    1
    88    95    97   ar
    89    95    94   ar
    90    97    99   ar
    91   107   110    1
    92   107   108    1
    93    81    82    1
    94   110   111    1
    95    90    93    1
    96    90    89    1
    97    90    91    1
    98    84    83    2
    99    93    94    1
   100    94    96   ar
   101    83    89   am
   102    83    82    1
   103    99    98   ar
   104   108   109    2
   105   108   114   am
   106    82    85    1
   107   120   114    1
   108   120   119    1
   109   111   113    1
   110   114   115    1
   111    91    92    2
   112   119   118    1
   113    87    86   ar
   114    96    98   ar
   115    85    86    1
   116   115   118    1
   117   115   116    1
   118    86    88   ar
   119   116   121   am
   120   116   117    2
   121   121   122    1
   122   132   131    2
   123   124   123    2
   124   134   135    1
   125   134   133    1
   126   136   135   ar
   127   131   130    1
   128   122   123    1
   129   122   125    1
   130   125   126    1
   131   135   137   ar
   132   133   130    1
   133   130   129    1
   134   126   128   ar
   135   126   127   ar
