@<TRIPOS>MOLECULE
tmp/1kyxB00.pdb
 130 129 0 0 0
SMALL
GASTEIGER

@<TRIPOS>ATOM
      1  N         77.9980   15.9440   34.3310 N.3    14  ALA14      -0.1245
      2  CA        78.0790   16.5930   35.6180 C.3    14  ALA14       0.1562
      3  C         77.6780   15.5580   36.6640 C.2    14  ALA14       0.2260
      4  O         77.2760   14.4440   36.3290 O.2    14  ALA14      -0.2867
      5  CB        77.1430   17.7930   35.6630 C.3    14  ALA14       0.0290
      6  N         75.6550   16.5840   39.5050 N.3    16  TRP16      -0.1227
      7  CA        74.4730   17.0370   40.2160 C.3    16  TRP16       0.1737
      8  C         73.3130   16.1980   39.6990 C.2    16  TRP16       0.2595
      9  O         73.1970   15.9820   38.4950 O.2    16  TRP16      -0.2718
     10  CB        74.1810   18.4970   39.9110 C.3    16  TRP16       0.0564
     11  CG        74.8400   19.4350   40.8410 C.ar   16  TRP16       0.0003
     12  CD1       76.1740   19.7330   40.9130 C.ar   16  TRP16       0.0946
     13  CD2       74.2040   20.1770   41.8760 C.ar   16  TRP16       0.0152
     14  NE1       76.4070   20.6200   41.9380 N.ar   16  TRP16      -0.2442
     15  CE2       75.2140   20.9100   42.5470 C.ar   16  TRP16       0.0810
     16  CE3       72.8740   20.2970   42.3030 C.ar   16  TRP16       0.0012
     17  CZ2       74.9350   21.7520   43.6240 C.ar   16  TRP16       0.0191
     18  CZ3       72.5950   21.1330   43.3690 C.ar   16  TRP16       0.0001
     19  CH2       73.6240   21.8530   44.0210 C.ar   16  TRP16       0.0015
     20  N         72.4590   15.7260   40.6010 N.am   17  ASN17      -0.1974
     21  CA        71.3100   14.9030   40.2230 C.3    17  ASN17       0.1688
     22  C         71.7470   13.6070   39.5450 C.2    17  ASN17       0.2292
     23  O         71.2560   13.2520   38.4760 O.2    17  ASN17      -0.2864
     24  CB        70.3890   15.6990   39.3050 C.3    17  ASN17       0.1181
     25  CG        70.0030   17.0380   39.9020 C.2    17  ASN17       0.2629
     26  OD1       70.1050   18.0800   39.2480 O.2    17  ASN17      -0.2716
     27  ND2       69.5580   17.0190   41.1530 N.am   17  ASN17      -0.0877
     28  N         81.9610   18.7440   38.3290 N.3    49  PRO49      -0.2102
     29  CA        81.0000   18.9820   39.4090 C.3    49  PRO49       0.1504
     30  C         79.5750   19.2730   38.9320 C.2    49  PRO49       0.2576
     31  O         78.6640   18.4870   39.1870 O.2    49  PRO49      -0.2718
     32  CB        81.6070   20.1660   40.1590 C.3    49  PRO49       0.0282
     33  CG        83.0620   20.0270   39.9060 C.3    49  PRO49       0.0208
     34  CD        83.1290   19.6330   38.4540 C.3    49  PRO49       0.0893
     35  N         79.3830   20.4030   38.2510 N.am   50  GLY50      -0.1943
     36  CA        78.0550   20.7740   37.7760 C.3    50  GLY50       0.2014
     37  C         77.9850   21.1520   36.3000 C.2    50  GLY50       0.2640
     38  O         79.0010   21.1640   35.5930 O.2    50  GLY50      -0.2714
     39  N         76.7780   21.4580   35.8320 N.am   51  SER51      -0.1935
     40  CA        76.5640   21.8370   34.4390 C.3    51  SER51       0.2055
     41  C         77.3890   23.0430   34.0100 C.2    51  SER51       0.2643
     42  O         77.7630   23.1650   32.8440 O.2    51  SER51      -0.2714
     43  CB        75.0850   22.1120   34.1930 C.3    51  SER51       0.2130
     44  OG        74.3580   20.9030   34.3060 O.3    51  SER51      -0.2179
     45  N         77.6660   23.9370   34.9510 N.am   52  TRP52      -0.1959
     46  CA        78.4690   25.1110   34.6510 C.3    52  TRP52       0.1771
     47  C         79.8670   24.7200   34.1390 C.2    52  TRP52       0.2619
     48  O         80.4080   25.3510   33.2290 O.2    52  TRP52      -0.2715
     49  CB        78.6180   25.9800   35.9010 C.3    52  TRP52       0.0590
     50  CG        79.4620   27.1850   35.6530 C.ar   52  TRP52       0.0006
     51  CD1       80.7860   27.3480   35.9750 C.ar   52  TRP52       0.0946
     52  CD2       79.0590   28.3850   34.9880 C.ar   52  TRP52       0.0152
     53  NE1       81.2280   28.5780   35.5490 N.ar   52  TRP52      -0.2442
     54  CE2       80.1880   29.2360   34.9410 C.ar   52  TRP52       0.0810
     55  CE3       77.8500   28.8270   34.4280 C.ar   52  TRP52       0.0012
     56  CZ2       80.1450   30.5060   34.3610 C.ar   52  TRP52       0.0191
     57  CZ3       77.8050   30.0950   33.8510 C.ar   52  TRP52       0.0001
     58  CH2       78.9500   30.9190   33.8250 C.ar   52  TRP52       0.0015
     59  N         80.4520   23.6870   34.7350 N.am   53  GLU53      -0.1977
     60  CA        81.7830   23.2390   34.3430 C.3    53  GLU53       0.1602
     61  C         81.8010   22.4620   33.0320 C.2    53  GLU53       0.2287
     62  O         82.8680   22.2260   32.4720 O.2    53  GLU53      -0.2864
     63  CB        82.3920   22.3660   35.4390 C.3    53  GLU53       0.0415
     64  CG        82.7530   23.1020   36.7290 C.3    53  GLU53       0.1163
     65  CD        81.5490   23.6660   37.4650 C.2    53  GLU53       0.3649
     66  OE1       80.5290   22.9500   37.5800 O.co2  53  GLU53      -0.2457
     67  OE2       81.6350   24.8180   37.9380 O.co2  53  GLU53      -0.2457
     68  N         72.0280   17.7920   34.2780 N.3    75  VAL75      -0.1231
     69  CA        70.6370   17.9760   34.6180 C.3    75  VAL75       0.1692
     70  C         70.4550   19.1950   35.4840 C.2    75  VAL75       0.2592
     71  O         70.9890   19.2620   36.5780 O.2    75  VAL75      -0.2718
     72  CB        70.0740   16.7500   35.3500 C.3    75  VAL75       0.0266
     73  CG1       68.6340   17.0380   35.8180 C.3    75  VAL75       0.0020
     74  CG2       70.1000   15.5390   34.4100 C.3    75  VAL75       0.0020
     75  N         69.7020   20.1640   34.9760 N.am   76  LEU76      -0.1966
     76  CA        69.4280   21.3980   35.7020 C.3    76  LEU76       0.1728
     77  C         67.9530   21.4070   36.0700 C.2    76  LEU76       0.2616
     78  O         67.0800   21.2290   35.2140 O.2    76  LEU76      -0.2715
     79  CB        69.7560   22.6100   34.8380 C.3    76  LEU76       0.0311
     80  CG        71.2400   22.9100   34.6110 C.3    76  LEU76       0.0022
     81  CD1       71.3870   23.8130   33.3770 C.3    76  LEU76       0.0001
     82  CD2       71.8340   23.5740   35.8640 C.3    76  LEU76       0.0001
     83  N         67.6800   21.6010   37.3560 N.am   77  ILE77      -0.1977
     84  CA        66.3140   21.6270   37.8540 C.3    77  ILE77       0.1596
     85  C         66.0020   22.9980   38.4060 C.2    77  ILE77       0.2287
     86  O         66.7830   23.5520   39.1820 O.2    77  ILE77      -0.2864
     87  CB        66.0990   20.5790   38.9770 C.3    77  ILE77       0.0276
     88  CG1       66.4560   19.1770   38.4690 C.3    77  ILE77       0.0022
     89  CG2       64.6470   20.5900   39.4150 C.3    77  ILE77       0.0022
     90  CD1       66.2200   18.0680   39.4810 C.3    77  ILE77       0.0001
     91  N         64.8530   25.9240   40.6150 N.3    79  GLY79      -0.1225
     92  CA        64.7410   26.0330   42.0600 C.3    79  GLY79       0.1811
     93  C         63.9560   27.2740   42.4440 C.2    79  GLY79       0.2280
     94  O         63.1380   27.7760   41.6640 O.2    79  GLY79      -0.2866
     95  N         65.2500   30.3730   43.0830 N.3    81  THR81      -0.1218
     96  CA        65.8380   31.6130   42.5590 C.3    81  THR81       0.1862
     97  C         65.9150   31.6330   41.0340 C.2    81  THR81       0.2287
     98  O         65.3450   30.7690   40.3610 O.2    81  THR81      -0.2866
     99  CB        67.2670   31.8490   43.1330 C.3    81  THR81       0.1770
    100  OG1       68.2040   30.9800   42.4920 O.3    81  THR81      -0.2211
    101  CG2       67.3090   31.5200   44.6050 C.3    81  THR81       0.0375
    102  N         68.6890   31.3660   39.3960 N.3    83  HIS83      -0.1226
    103  CA        69.8920   30.6580   39.0340 C.3    83  HIS83       0.1752
    104  C         69.6740   29.7230   37.8620 C.2    83  HIS83       0.2596
    105  O         70.4590   29.7150   36.9030 O.2    83  HIS83      -0.2718
    106  CB        70.3900   29.8700   40.2280 C.3    83  HIS83       0.0759
    107  CG        71.8750   29.8470   40.3440 C.ar   83  HIS83       0.0818
    108  ND1       72.6240   28.7070   40.1480 N.ar   83  HIS83      -0.2268
    109  CD2       72.7550   30.8280   40.6560 C.ar   83  HIS83       0.1154
    110  CE1       73.9020   28.9850   40.3410 C.ar   83  HIS83       0.1986
    111  NE2       74.0070   30.2660   40.6500 N.ar   83  HIS83      -0.2212
    112  N         68.6100   28.9300   37.9440 N.am   84  PHE84      -0.1976
    113  CA        68.2910   27.9740   36.8990 C.3    84  PHE84       0.1639
    114  C         68.2970   28.6250   35.5070 C.2    84  PHE84       0.2290
    115  O         68.9630   28.1570   34.5880 O.2    84  PHE84      -0.2864
    116  CB        66.9250   27.3590   37.1890 C.3    84  PHE84       0.0560
    117  CG        66.3570   26.5670   36.0470 C.ar   84  PHE84      -0.0200
    118  CD1       66.7830   25.2690   35.8030 C.ar   84  PHE84      -0.0042
    119  CD2       65.3960   27.1310   35.2130 C.ar   84  PHE84      -0.0042
    120  CE1       66.2610   24.5340   34.7440 C.ar   84  PHE84      -0.0003
    121  CE2       64.8650   26.4130   34.1560 C.ar   84  PHE84      -0.0003
    122  CZ        65.2970   25.1060   33.9170 C.ar   84  PHE84      -0.0000
    123  N         72.0450   30.0190   34.4490 N.3    87  ILE87      -0.1245
    124  CA        73.0400   28.9790   34.1980 C.3    87  ILE87       0.1561
    125  C         72.6650   28.2230   32.9200 C.2    87  ILE87       0.2260
    126  O         73.5290   27.9110   32.1030 O.2    87  ILE87      -0.2867
    127  CB        73.1090   27.9370   35.3380 C.3    87  ILE87       0.0252
    128  CG1       73.4940   28.5930   36.6420 C.3    87  ILE87       0.0019
    129  CG2       74.1910   26.8920   35.0530 C.3    87  ILE87       0.0019
    130  CD1       73.7060   27.5560   37.7370 C.3    87  ILE87       0.0001
@<TRIPOS>BOND
     1   126   125    2
     2    62    61    2
     3    42    41    2
     4   125   124    1
     5    61    60    1
     6    48    47    2
     7    81    80    1
     8    58    57   ar
     9    58    56   ar
    10    57    55   ar
    11   122   121   ar
    12   122   120   ar
    13    41    40    1
    14    41    45   am
    15    47    46    1
    16    47    59   am
    17   121   119   ar
    18    43    44    1
    19    43    40    1
    20   124   123    1
    21   124   127    1
    22    68    69    1
    23     1     2    1
    24    60    59    1
    25    60    63    1
    26    56    54   ar
    27    74    72    1
    28    55    52   ar
    29    40    39    1
    30   115   114    2
    31    80    79    1
    32    80    82    1
    33    69    72    1
    34    69    70    1
    35    46    45    1
    36    46    49    1
    37   120   118   ar
    38    79    76    1
    39    54    52   ar
    40    54    53   ar
    41    75    70   am
    42    75    76    1
    43    52    50   ar
    44   129   127    1
    45   119   117   ar
    46    78    77    2
    47   127   128    1
    48    72    73    1
    49    63    64    1
    50    70    71    2
    51   114   113    1
    52    53    51   ar
    53    38    37    2
    54     2     5    1
    55     2     3    1
    56    50    49    1
    57    50    51   ar
    58    76    77    1
    59   118   117   ar
    60    39    37   am
    61   117   116    1
    62    77    83   am
    63    37    36    1
    64     4     3    2
    65   128   130    1
    66    64    65    1
    67   113   116    1
    68   113   112    1
    69   105   104    2
    70    83    84    1
    71    65    66   ar
    72    65    67   ar
    73    36    35    1
    74    84    85    1
    75    84    87    1
    76   104   112   am
    77   104   103    1
    78    35    30   am
    79    28    34    1
    80    28    29    1
    81    85    86    2
    82    34    33    1
    83    88    87    1
    84    88    90    1
    85    23    22    2
    86     9     8    2
    87    30    31    2
    88    30    29    1
    89    87    89    1
    90   103   102    1
    91   103   106    1
    92    26    25    2
    93    24    25    1
    94    24    21    1
    95    29    32    1
    96     6     7    1
    97    22    21    1
    98     8     7    1
    99     8    20   am
   100    25    27   am
   101    33    32    1
   102    10     7    1
   103    10    11    1
   104   108   110   ar
   105   108   107   ar
   106    21    20    1
   107   106   107    1
   108   110   111   ar
   109   107   109   ar
   110    98    97    2
   111    91    92    1
   112   111   109   ar
   113    11    12   ar
   114    11    13   ar
   115    12    14   ar
   116    97    96    1
   117    94    93    2
   118    13    16   ar
   119    13    15   ar
   120    14    15   ar
   121    92    93    1
   122    16    18   ar
   123   100    99    1
   124    15    17   ar
   125    96    95    1
   126    96    99    1
   127    99   101    1
   128    18    19   ar
   129    17    19   ar
