@<TRIPOS>MOLECULE
tmp/1kyyE00.pdb
 108 108 0 0 0
SMALL
GASTEIGER

@<TRIPOS>ATOM
      1  N         74.7720   58.8290   26.5410 N.3    19  ALA19      -0.1245
      2  CA        73.8180   59.0530   25.4690 C.3    19  ALA19       0.1562
      3  C         73.0680   60.3420   25.7650 C.2    19  ALA19       0.2260
      4  O         73.2500   60.9450   26.8220 O.2    19  ALA19      -0.2867
      5  CB        72.8420   57.8900   25.3800 C.3    19  ALA19       0.0290
      6  N         69.4690   60.6460   25.3200 N.3    21  TRP21      -0.1227
      7  CA        68.0400   60.4280   25.5380 C.3    21  TRP21       0.1737
      8  C         67.7890   60.5430   27.0300 C.2    21  TRP21       0.2595
      9  O         68.5810   60.0360   27.8370 O.2    21  TRP21      -0.2718
     10  CB        67.6200   59.0320   25.1000 C.3    21  TRP21       0.0564
     11  CG        67.2530   58.9070   23.6750 C.ar   21  TRP21       0.0003
     12  CD1       68.0760   59.0440   22.5810 C.ar   21  TRP21       0.0946
     13  CD2       65.9680   58.5530   23.1700 C.ar   21  TRP21       0.0152
     14  NE1       67.3690   58.7830   21.4180 N.ar   21  TRP21      -0.2442
     15  CE2       66.0730   58.4800   21.7550 C.ar   21  TRP21       0.0810
     16  CE3       64.7380   58.2870   23.7740 C.ar   21  TRP21       0.0012
     17  CZ2       64.9910   58.1500   20.9410 C.ar   21  TRP21       0.0191
     18  CZ3       63.6600   57.9610   22.9630 C.ar   21  TRP21       0.0001
     19  CH2       63.7950   57.8950   21.5590 C.ar   21  TRP21       0.0015
     20  N         66.6910   61.1970   27.4000 N.am   22  ASN22      -0.1974
     21  CA        66.3460   61.3730   28.8160 C.3    22  ASN22       0.1688
     22  C         67.4330   62.1560   29.5640 C.2    22  ASN22       0.2292
     23  O         67.9120   61.7230   30.6240 O.2    22  ASN22      -0.2864
     24  CB        66.1310   59.9970   29.4650 C.3    22  ASN22       0.1181
     25  CG        65.1160   59.1530   28.7020 C.2    22  ASN22       0.2629
     26  OD1       65.3760   57.9950   28.3450 O.2    22  ASN22      -0.2716
     27  ND2       63.9540   59.7380   28.4370 N.am   22  ASN22      -0.0877
     28  N         74.1570   59.7390   20.3600 N.3    54  PRO54      -0.2102
     29  CA        72.6960   59.8850   20.3380 C.3    54  PRO54       0.1504
     30  C         71.9440   59.0430   21.3770 C.2    54  PRO54       0.2576
     31  O         71.3210   59.5860   22.2930 O.2    54  PRO54      -0.2718
     32  CB        72.3230   59.4820   18.9070 C.3    54  PRO54       0.0282
     33  CG        73.6230   59.6950   18.1250 C.3    54  PRO54       0.0208
     34  CD        74.6750   59.2430   19.0690 C.3    54  PRO54       0.0893
     35  N         71.9980   57.7170   21.2280 N.am   55  GLY55      -0.1943
     36  CA        71.2820   56.8410   22.1380 C.3    55  GLY55       0.2014
     37  C         72.1180   55.7160   22.7140 C.2    55  GLY55       0.2640
     38  O         73.2680   55.5130   22.3090 O.2    55  GLY55      -0.2714
     39  N         71.5350   54.9700   23.6560 N.am   56  SER56      -0.1935
     40  CA        72.2460   53.8640   24.2810 C.3    56  SER56       0.2055
     41  C         72.7820   52.8510   23.2760 C.2    56  SER56       0.2643
     42  O         73.8180   52.2360   23.5000 O.2    56  SER56      -0.2714
     43  CB        71.3520   53.1760   25.3010 C.3    56  SER56       0.2130
     44  OG        71.1490   54.0290   26.4190 O.3    56  SER56      -0.2179
     45  N         72.0930   52.6910   22.1600 N.am   57  TRP57      -0.1959
     46  CA        72.5580   51.7610   21.1650 C.3    57  TRP57       0.1771
     47  C         73.9780   52.1250   20.7040 C.2    57  TRP57       0.2619
     48  O         74.7880   51.2410   20.3750 O.2    57  TRP57      -0.2715
     49  CB        71.6040   51.7640   19.9720 C.3    57  TRP57       0.0590
     50  CG        72.0900   50.9170   18.8240 C.ar   57  TRP57       0.0006
     51  CD1       72.7740   51.3470   17.7340 C.ar   57  TRP57       0.0946
     52  CD2       71.9750   49.4910   18.6840 C.ar   57  TRP57       0.0152
     53  NE1       73.0950   50.2920   16.9210 N.ar   57  TRP57      -0.2442
     54  CE2       72.6190   49.1380   17.4770 C.ar   57  TRP57       0.0810
     55  CE3       71.3900   48.4740   19.4620 C.ar   57  TRP57       0.0012
     56  CZ2       72.7000   47.8110   17.0230 C.ar   57  TRP57       0.0191
     57  CZ3       71.4710   47.1440   19.0070 C.ar   57  TRP57       0.0001
     58  CH2       72.1190   46.8310   17.8040 C.ar   57  TRP57       0.0015
     59  N         74.2900   53.4200   20.6970 N.am   58  GLU58      -0.1977
     60  CA        75.6040   53.8890   20.2380 C.3    58  GLU58       0.1602
     61  C         76.7450   53.7860   21.2450 C.2    58  GLU58       0.2287
     62  O         77.9020   53.8340   20.8560 O.2    58  GLU58      -0.2864
     63  CB        75.5130   55.3370   19.7490 C.3    58  GLU58       0.0415
     64  CG        74.8200   55.5220   18.3990 C.3    58  GLU58       0.1163
     65  CD        73.3190   55.3230   18.4520 C.2    58  GLU58       0.3649
     66  OE1       72.6480   55.8230   19.3780 O.co2  58  GLU58      -0.2457
     67  OE2       72.8020   54.6770   17.5410 O.co2  58  GLU58      -0.2457
     68  N         70.2160   55.9290   29.6080 N.3    80  VAL80      -0.1231
     69  CA        68.9580   55.6710   30.2760 C.3    80  VAL80       0.1692
     70  C         67.9220   55.1390   29.3010 C.2    80  VAL80       0.2592
     71  O         67.5420   55.8150   28.3510 O.2    80  VAL80      -0.2718
     72  CB        68.4240   56.9360   30.9940 C.3    80  VAL80       0.0266
     73  CG1       67.0270   56.6710   31.5460 C.3    80  VAL80       0.0020
     74  CG2       69.3590   57.3200   32.1390 C.3    80  VAL80       0.0020
     75  N         67.4890   53.9020   29.5370 N.am   81  LEU81      -0.1966
     76  CA        66.4820   53.2500   28.6970 C.3    81  LEU81       0.1728
     77  C         65.2210   53.0820   29.5290 C.2    81  LEU81       0.2616
     78  O         65.2590   52.5790   30.6520 O.2    81  LEU81      -0.2715
     79  CB        66.9940   51.8850   28.2150 C.3    81  LEU81       0.0311
     80  CG        68.0750   51.9250   27.1270 C.3    81  LEU81       0.0022
     81  CD1       68.9300   50.6680   27.1840 C.3    81  LEU81       0.0001
     82  CD2       67.4170   52.0670   25.7660 C.3    81  LEU81       0.0001
     83  N         64.1010   53.5200   28.9770 N.am   82  ILE82      -0.1977
     84  CA        62.8240   53.4320   29.6710 C.3    82  ILE82       0.1596
     85  C         61.8650   52.5730   28.8790 C.2    82  ILE82       0.2287
     86  O         61.7060   52.7870   27.6860 O.2    82  ILE82      -0.2864
     87  CB        62.2200   54.8350   29.8510 C.3    82  ILE82       0.0276
     88  CG1       63.1620   55.6610   30.7440 C.3    82  ILE82       0.0022
     89  CG2       60.8020   54.7310   30.4110 C.3    82  ILE82       0.0022
     90  CD1       62.7510   57.1140   30.9600 C.3    82  ILE82       0.0001
     91  N         60.9560   47.1190   21.8530 N.3    88  HIS88      -0.1241
     92  CA        62.1590   47.8830   21.5670 C.3    88  HIS88       0.1621
     93  C         63.0870   47.9310   22.7940 C.2    88  HIS88       0.2264
     94  O         64.2920   47.6770   22.7060 O.2    88  HIS88      -0.2867
     95  CB        61.7150   49.2920   21.1670 C.3    88  HIS88       0.0745
     96  CG        62.7840   50.1140   20.5430 C.ar   88  HIS88       0.0817
     97  ND1       63.3780   49.7730   19.3470 N.ar   88  HIS88      -0.2268
     98  CD2       63.3790   51.2560   20.9530 C.ar   88  HIS88       0.1154
     99  CE1       64.2960   50.6710   19.0480 C.ar   88  HIS88       0.1986
    100  NE2       64.3160   51.5810   20.0060 N.ar   88  HIS88      -0.2212
    101  N         66.9470   46.3500   22.8680 N.3    92  ILE92      -0.1245
    102  CA        68.0910   47.2480   22.8790 C.3    92  ILE92       0.1561
    103  C         68.8820   47.0650   24.1700 C.2    92  ILE92       0.2260
    104  O         70.1050   47.0500   24.1480 O.2    92  ILE92      -0.2867
    105  CB        67.6800   48.7290   22.7490 C.3    92  ILE92       0.0252
    106  CG1       67.1270   48.9910   21.3520 C.3    92  ILE92       0.0019
    107  CG2       68.8970   49.6320   22.9480 C.3    92  ILE92       0.0019
    108  CD1       66.7970   50.4510   21.1360 C.3    92  ILE92       0.0001
@<TRIPOS>BOND
     1    53    54   ar
     2    53    51   ar
     3    56    54   ar
     4    56    58   ar
     5    54    52   ar
     6    67    65   ar
     7    51    50   ar
     8    58    57   ar
     9    33    32    1
    10    33    34    1
    11    64    65    1
    12    64    63    1
    13    65    66   ar
    14    52    50   ar
    15    52    55   ar
    16    50    49    1
    17    32    29    1
    18    57    55   ar
    19    99    97   ar
    20    99   100   ar
    21    34    28    1
    22    97    96   ar
    23    63    60    1
    24    49    46    1
    25   100    98   ar
    26    60    59    1
    27    60    61    1
    28    29    28    1
    29    29    30    1
    30    48    47    2
    31    96    98   ar
    32    96    95    1
    33    59    47   am
    34    47    46    1
    35    62    61    2
    36    17    19   ar
    37    17    15   ar
    38   108   106    1
    39    46    45    1
    40    95    92    1
    41    35    30   am
    42    35    36    1
    43   106   105    1
    44    30    31    2
    45    14    15   ar
    46    14    12   ar
    47    19    18   ar
    48    92    91    1
    49    92    93    1
    50    15    13   ar
    51    36    37    1
    52    45    41   am
    53    38    37    2
    54    12    11   ar
    55    94    93    2
    56    37    39   am
    57   105   102    1
    58   105   107    1
    59   101   102    1
    60   102   103    1
    61    18    16   ar
    62    13    11   ar
    63    13    16   ar
    64    41    42    2
    65    41    40    1
    66    39    40    1
    67    11    10    1
    68   104   103    2
    69    40    43    1
    70    10     7    1
    71    43    44    1
    72     6     7    1
    73     5     2    1
    74     2     3    1
    75     2     1    1
    76     7     8    1
    77     3     4    2
    78    82    80    1
    79     8    20   am
    80     8     9    2
    81    80    81    1
    82    80    79    1
    83    20    21    1
    84    86    85    2
    85    79    76    1
    86    26    25    2
    87    71    70    2
    88    27    25   am
    89    76    77    1
    90    76    75    1
    91    25    24    1
    92    21    24    1
    93    21    22    1
    94    85    84    1
    95    83    77   am
    96    83    84    1
    97    70    75   am
    98    70    69    1
    99    77    78    2
   100    22    23    2
   101    68    69    1
   102    84    87    1
   103    87    89    1
   104    87    88    1
   105    69    72    1
   106    88    90    1
   107    72    73    1
   108    72    74    1
