@<TRIPOS>MOLECULE
tmp/1kz8B02.pdb
 90 86 0 0 0
SMALL
GASTEIGER

@<TRIPOS>ATOM
      1  N         22.8470   90.7100   22.3460 N.3    39  ALA39      -0.1245
      2  CA        21.7660   91.3140   21.5710 C.3    39  ALA39       0.1562
      3  C         22.2430   92.5870   20.8270 C.2    39  ALA39       0.2260
      4  O         21.8710   92.8360   19.6680 O.2    39  ALA39      -0.2867
      5  CB        20.6170   91.6230   22.4900 C.3    39  ALA39       0.0290
      6  N         24.0090   91.9780   17.7270 N.3    42  LYS42      -0.1231
      7  CA        23.0760   91.4490   16.7290 C.3    42  LYS42       0.1693
      8  C         23.2440   89.9910   16.3690 C.2    42  LYS42       0.2592
      9  O         22.8960   89.5700   15.2680 O.2    42  LYS42      -0.2718
     10  CB        23.1610   92.3370   15.4600 C.3    42  LYS42       0.0285
     11  CG        22.7320   93.7870   15.6300 C.3    42  LYS42       0.0035
     12  CD        21.2940   93.8960   16.1540 C.3    42  LYS42       0.0206
     13  CE        20.8880   95.3090   16.5150 C.3    42  LYS42       0.1093
     14  NZ        19.5300   95.2730   17.2010 N.3    42  LYS42      -0.1314
     15  N         23.7500   89.1820   17.2930 N.am   43  ALA43      -0.1966
     16  CA        23.8050   87.7400   17.1060 C.3    43  ALA43       0.1728
     17  C         22.3650   87.2450   17.0070 C.2    43  ALA43       0.2617
     18  O         21.6000   87.4470   17.9520 O.2    43  ALA43      -0.2715
     19  CB        24.5380   87.0770   18.2660 C.3    43  ALA43       0.0334
     20  N         21.9730   86.6100   15.9020 N.am   44  GLY44      -0.1940
     21  CA        20.6090   86.1250   15.7360 C.3    44  GLY44       0.2014
     22  C         19.7020   87.0690   14.9590 C.2    44  GLY44       0.2638
     23  O         18.5090   86.8130   14.7600 O.2    44  GLY44      -0.2714
     24  N         20.2680   88.1400   14.4240 N.am   45  ILE45      -0.1977
     25  CA        19.4450   89.1190   13.6890 C.3    45  ILE45       0.1596
     26  C         18.8110   88.5010   12.4620 C.2    45  ILE45       0.2287
     27  O         17.6860   88.8690   12.0880 O.2    45  ILE45      -0.2864
     28  CB        20.2640   90.3840   13.3720 C.3    45  ILE45       0.0276
     29  CG1       19.3410   91.4960   12.8980 C.3    45  ILE45       0.0022
     30  CG2       21.3890   90.1040   12.4020 C.3    45  ILE45       0.0022
     31  CD1       20.0730   92.7120   12.3340 C.3    45  ILE45       0.0001
     32  N         17.1800   85.8700   12.2260 N.3    47  HIS47      -0.1226
     33  CA        15.8450   85.3960   12.6030 C.3    47  HIS47       0.1752
     34  C         14.8140   86.5140   12.6120 C.2    47  HIS47       0.2595
     35  O         13.6310   86.1950   12.5370 O.2    47  HIS47      -0.2718
     36  CB        15.8190   84.6460   13.9380 C.3    47  HIS47       0.0759
     37  CG        16.4570   83.3020   13.8530 C.ar   47  HIS47       0.0818
     38  ND1       15.8170   82.2310   13.2770 N.ar   47  HIS47      -0.2268
     39  CD2       17.6910   82.8620   14.2030 C.ar   47  HIS47       0.1154
     40  CE1       16.6090   81.1770   13.3070 C.ar   47  HIS47       0.1986
     41  NE2       17.7560   81.5360   13.8420 N.ar   47  HIS47      -0.2212
     42  N         15.2110   87.7920   12.6110 N.am   48  LEU48      -0.1980
     43  CA        14.2360   88.8610   12.4990 C.3    48  LEU48       0.1596
     44  C         13.9930   89.2580   11.0490 C.2    48  LEU48       0.2287
     45  O         13.1040   90.0540   10.7760 O.2    48  LEU48      -0.2864
     46  CB        14.6920   90.1260   13.2580 C.3    48  LEU48       0.0297
     47  CG        14.8910   89.9890   14.7760 C.3    48  LEU48       0.0022
     48  CD1       15.3440   91.3080   15.3640 C.3    48  LEU48       0.0001
     49  CD2       13.6240   89.5300   15.4790 C.3    48  LEU48       0.0001
     50  N          9.5600   94.2890   16.7150 N.3    54  VAL54      -0.1231
     51  CA         9.5500   93.6780   18.0450 C.3    54  VAL54       0.1692
     52  C         10.1240   94.6160   19.0950 C.2    54  VAL54       0.2592
     53  O         10.2990   95.8050   18.8180 O.2    54  VAL54      -0.2718
     54  CB        10.3340   92.3660   18.0740 C.3    54  VAL54       0.0266
     55  CG1        9.4840   91.2170   17.5720 C.3    54  VAL54       0.0020
     56  CG2       11.6540   92.5040   17.3330 C.3    54  VAL54       0.0020
     57  N         10.4150   94.0790   20.2850 N.am   55  LYS55      -0.1966
     58  CA        10.9660   94.9140   21.3560 C.3    55  LYS55       0.1728
     59  C         12.1650   95.7040   20.8370 C.2    55  LYS55       0.2616
     60  O         13.0250   95.1500   20.1520 O.2    55  LYS55      -0.2715
     61  CB        11.4420   94.1020   22.5690 C.3    55  LYS55       0.0311
     62  CG        10.3860   93.6090   23.5430 C.3    55  LYS55       0.0038
     63  CD        11.0330   92.9080   24.7270 C.3    55  LYS55       0.0206
     64  CE        10.0870   92.0060   25.4980 C.3    55  LYS55       0.1093
     65  NZ        10.8340   91.2190   26.5440 N.3    55  LYS55      -0.1314
     66  N         12.2380   96.9820   21.1730 N.am   56  LYS56      -0.1963
     67  CA        13.4190   97.7760   20.8830 C.3    56  LYS56       0.1728
     68  C         14.5380   97.2700   21.7890 C.2    56  LYS56       0.2616
     69  O         14.2660   96.6810   22.8080 O.2    56  LYS56      -0.2715
     70  CB        13.2140   99.2610   21.1920 C.3    56  LYS56       0.0311
     71  CG        11.9630   99.8160   20.5320 C.3    56  LYS56       0.0038
     72  CD        12.3430  100.6120   19.3040 C.3    56  LYS56       0.0206
     73  CE        12.2290   99.7580   18.0490 C.3    56  LYS56       0.1093
     74  NZ        11.4940  100.4900   16.9710 N.3    56  LYS56      -0.1314
     75  N         15.7640   97.5860   21.4480 N.am   57  LEU57      -0.1977
     76  CA        16.9240   97.1220   22.1780 C.3    57  LEU57       0.1596
     77  C         16.9490   97.6950   23.6080 C.2    57  LEU57       0.2287
     78  O         17.2890   96.9850   24.5640 O.2    57  LEU57      -0.2864
     79  CB        18.1640   97.4950   21.3700 C.3    57  LEU57       0.0297
     80  CG        19.5180   96.9230   21.8110 C.3    57  LEU57       0.0022
     81  CD1       19.4820   95.4160   22.0130 C.3    57  LEU57       0.0001
     82  CD2       20.5810   97.3220   20.7960 C.3    57  LEU57       0.0001
     83  N         14.4440   95.8100   25.6790 N.3    60  LEU60      -0.1245
     84  CA        14.9240   94.4450   25.9550 C.3    60  LEU60       0.1561
     85  C         15.9820   94.4870   27.0520 C.2    60  LEU60       0.2260
     86  O         15.9470   93.6790   27.9880 O.2    60  LEU60      -0.2867
     87  CB        15.5160   93.7940   24.7160 C.3    60  LEU60       0.0270
     88  CG        16.3630   92.5260   24.9580 C.3    60  LEU60       0.0019
     89  CD1       15.6140   91.3800   25.5890 C.3    60  LEU60       0.0001
     90  CD2       16.9500   92.0800   23.6360 C.3    60  LEU60       0.0001
@<TRIPOS>BOND
     1    45    44    2
     2    44    43    1
     3    27    26    2
     4    32    33    1
     5    31    29    1
     6    30    28    1
     7    26    25    1
     8    43    42    1
     9    43    46    1
    10    35    34    2
    11    33    34    1
    12    33    36    1
    13    42    34   am
    14    29    28    1
    15    46    47    1
    16    38    40   ar
    17    38    37   ar
    18    40    41   ar
    19    28    25    1
    20    25    24    1
    21    41    39   ar
    22    37    36    1
    23    37    39   ar
    24    24    22   am
    25    23    22    2
    26    47    48    1
    27    47    49    1
    28    22    21    1
    29     9     8    2
    30    10    11    1
    31    10     7    1
    32    11    12    1
    33    21    20    1
    34    20    17   am
    35    12    13    1
    36     8     7    1
    37     8    15   am
    38    13    14    1
    39    50    51    1
    40     7     6    1
    41    74    73    1
    42    17    16    1
    43    17    18    2
    44    16    15    1
    45    16    19    1
    46    56    54    1
    47    55    54    1
    48    51    54    1
    49    51    52    1
    50    73    72    1
    51    53    52    2
    52    52    57   am
    53    72    71    1
    54     4     3    2
    55    60    59    2
    56    57    58    1
    57    71    70    1
    58    82    80    1
    59     3     2    1
    60    59    66   am
    61    59    58    1
    62    67    66    1
    63    67    70    1
    64    67    68    1
    65    58    61    1
    66    79    80    1
    67    79    76    1
    68    75    68   am
    69    75    76    1
    70     2     1    1
    71     2     5    1
    72    68    69    2
    73    80    81    1
    74    76    77    1
    75    61    62    1
    76    62    63    1
    77    77    78    2
    78    90    88    1
    79    87    88    1
    80    87    84    1
    81    63    64    1
    82    88    89    1
    83    64    65    1
    84    83    84    1
    85    84    85    1
    86    85    86    2
