@<TRIPOS>MOLECULE
tmp/1kzdB00.pdb
 82 77 0 0 0
SMALL
GASTEIGER

@<TRIPOS>ATOM
      1  N         10.7910  -11.8420    2.3470 N.3    76  GLU76      -0.1245
      2  CA        10.2800  -10.7610    1.5120 C.3    76  GLU76       0.1567
      3  C         11.0740  -10.6500    0.2150 C.2    76  GLU76       0.2260
      4  O         12.2510  -11.0180    0.1690 O.2    76  GLU76      -0.2867
      5  CB        10.3780   -9.4350    2.2660 C.3    76  GLU76       0.0388
      6  CG         9.7380   -9.4310    3.6440 C.3    76  GLU76       0.1160
      7  CD         8.2630   -9.7820    3.6250 C.2    76  GLU76       0.3649
      8  OE1        7.6160   -9.6570    2.5600 O.co2  76  GLU76      -0.2457
      9  OE2        7.7440  -10.1660    4.6930 O.co2  76  GLU76      -0.2457
     10  N          6.9600  -10.8490   -0.4460 N.3    78  ASN78      -0.1240
     11  CA         6.0060  -11.9460   -0.5770 C.3    78  ASN78       0.1653
     12  C          4.6610  -11.5810   -1.2130 C.2    78  ASN78       0.2266
     13  O          3.8110  -12.4500   -1.3960 O.2    78  ASN78      -0.2867
     14  CB         5.7760  -12.6080    0.7890 C.3    78  ASN78       0.1155
     15  CG         5.2210  -11.6430    1.8250 C.2    78  ASN78       0.2627
     16  OD1        5.0830  -10.4410    1.5690 O.2    78  ASN78      -0.2716
     17  ND2        4.9000  -12.1680    3.0060 N.am   78  ASN78      -0.0877
     18  N          1.8010  -10.4480   -0.2680 N.3    80  VAL80      -0.1245
     19  CA         0.6370  -11.0520    0.3960 C.3    80  VAL80       0.1561
     20  C         -0.7390  -10.4970    0.0200 C.2    80  VAL80       0.2260
     21  O         -0.8960   -9.3150   -0.2980 O.2    80  VAL80      -0.2867
     22  CB         0.7420  -10.9690    1.9490 C.3    80  VAL80       0.0252
     23  CG1        2.1250  -11.3660    2.4080 C.3    80  VAL80       0.0019
     24  CG2        0.4000   -9.5760    2.4250 C.3    80  VAL80       0.0019
     25  N          1.0040   -6.4390   -2.5040 N.3    84  GLU84      -0.1245
     26  CA         1.7730   -5.4270   -1.7920 C.3    84  GLU84       0.1567
     27  C          2.7620   -4.9310   -2.8320 C.2    84  GLU84       0.2260
     28  O          3.6830   -5.6520   -3.2210 O.2    84  GLU84      -0.2867
     29  CB         2.5090   -6.0460   -0.6050 C.3    84  GLU84       0.0388
     30  CG         1.5730   -6.6820    0.4130 C.3    84  GLU84       0.1160
     31  CD         2.3130   -7.2590    1.6000 C.2    84  GLU84       0.3649
     32  OE1        1.9630   -6.8780    2.7350 O.co2  84  GLU84      -0.2457
     33  OE2        3.2370   -8.0850    1.3980 O.co2  84  GLU84      -0.2457
     34  N         10.3730   -4.5850    3.5080 N.3    96  ASN96      -0.1225
     35  CA         9.1810   -5.4240    3.4100 C.3    96  ASN96       0.1785
     36  C          8.2520   -4.7750    2.4010 C.2    96  ASN96       0.2597
     37  O          8.1170   -3.5510    2.3840 O.2    96  ASN96      -0.2718
     38  CB         8.4610   -5.5220    4.7630 C.3    96  ASN96       0.1169
     39  CG         7.1220   -6.2430    4.6600 C.2    96  ASN96       0.2627
     40  OD1        6.9870   -7.2100    3.9190 O.2    96  ASN96      -0.2716
     41  ND2        6.1250   -5.7670    5.4070 N.am   96  ASN96      -0.0877
     42  N          7.6390   -5.5700    1.5320 N.am   97  ASP97      -0.1960
     43  CA         6.6950   -4.9880    0.5950 C.3    97  ASP97       0.1840
     44  C          5.3550   -4.9030    1.3170 C.2    97  ASP97       0.2622
     45  O          4.9770   -5.8120    2.0540 O.2    97  ASP97      -0.2715
     46  CB         6.5800   -5.8000   -0.7070 C.3    97  ASP97       0.1450
     47  CG         6.2880   -7.2770   -0.4830 C.2    97  ASP97       0.3671
     48  OD1        5.8140   -7.9100   -1.4450 O.co2  97  ASP97      -0.2456
     49  OD2        6.5370   -7.8110    0.6150 O.co2  97  ASP97      -0.2456
     50  N          4.6530   -3.7900    1.1240 N.am   98  VAL98      -0.1964
     51  CA         3.3730   -3.5640    1.7810 C.3    98  VAL98       0.1712
     52  C          2.3780   -2.9290    0.8120 C.2    98  VAL98       0.2458
     53  O          2.7470   -2.5230   -0.2940 O.2    98  VAL98      -0.2730
     54  CB         3.5310   -2.5940    2.9790 C.3    98  VAL98       0.0289
     55  CG1        4.4760   -3.1800    4.0190 C.3    98  VAL98       0.0023
     56  CG2        4.0670   -1.2510    2.4890 C.3    98  VAL98       0.0023
     57  N          1.0950   -2.8650    1.2070 N.am   99  PRO99      -0.2727
     58  CA         0.0820   -2.2570    0.3440 C.3    99  PRO99       0.1402
     59  C          0.3680   -0.7570    0.2570 C.2    99  PRO99       0.2269
     60  O          0.5930   -0.1000    1.2700 O.2    99  PRO99      -0.2865
     61  CB        -1.2240   -2.5340    1.0880 C.3    99  PRO99       0.0296
     62  CG        -0.9370   -3.8360    1.7900 C.3    99  PRO99       0.0237
     63  CD         0.4580   -3.5820    2.3290 C.3    99  PRO99       0.0939
     64  N         -1.6200    1.4580    2.5870 N.3   102  ASP102     -0.1239
     65  CA        -1.4200    1.4810    4.0430 C.3   102  ASP102      0.1674
     66  C         -0.5900    2.7030    4.4460 C.2   102  ASP102      0.2266
     67  O          0.1760    3.2280    3.6450 O.2   102  ASP102     -0.2867
     68  CB        -0.7160    0.2050    4.5150 C.3   102  ASP102      0.1410
     69  CG        -1.6540   -0.9840    4.5880 C.2   102  ASP102      0.3668
     70  OD1       -2.8490   -0.8200    4.2700 O.co2 102  ASP102     -0.2456
     71  OD2       -1.1990   -2.0810    4.9670 O.co2 102  ASP102     -0.2456
     72  N          2.3250    4.7700    6.6420 N.3   104  PHE104     -0.1241
     73  CA         3.5910    4.6310    7.3470 C.3   104  PHE104      0.1605
     74  C          4.2510    5.9960    7.3510 C.2   104  PHE104      0.2264
     75  O          3.7850    6.9250    6.6820 O.2   104  PHE104     -0.2867
     76  CB         4.5350    3.6550    6.6300 C.3   104  PHE104      0.0534
     77  CG         3.9640    2.2800    6.4370 C.ar  104  PHE104     -0.0203
     78  CD1        3.2100    1.9800    5.3070 C.ar  104  PHE104     -0.0042
     79  CD2        4.1680    1.2910    7.3940 C.ar  104  PHE104     -0.0042
     80  CE1        2.6630    0.7060    5.1290 C.ar  104  PHE104     -0.0003
     81  CE2        3.6270    0.0130    7.2290 C.ar  104  PHE104     -0.0003
     82  CZ         2.8740   -0.2780    6.0930 C.ar  104  PHE104     -0.0000
@<TRIPOS>BOND
     1    28    27    2
     2    27    26    1
     3    25    26    1
     4    26    29    1
     5    48    47   ar
     6    13    12    2
     7    12    11    1
     8    46    47    1
     9    46    43    1
    10    29    30    1
    11    11    10    1
    12    11    14    1
    13    47    49   ar
    14    21    20    2
    15    53    52    2
    16    18    19    1
    17    20    19    1
    18     4     3    2
    19     3     2    1
    20    59    58    1
    21    59    60    2
    22    58    61    1
    23    58    57    1
    24    19    22    1
    25    30    31    1
    26    43    44    1
    27    43    42    1
    28    14    15    1
    29    52    57   am
    30    52    51    1
    31    61    62    1
    32    50    44   am
    33    50    51    1
    34    57    63    1
    35    44    45    2
    36    33    31   ar
    37     2     5    1
    38     2     1    1
    39    42    36   am
    40    16    15    2
    41    31    32   ar
    42    51    54    1
    43    62    63    1
    44    15    17   am
    45    22    23    1
    46    22    24    1
    47     5     6    1
    48    37    36    2
    49    36    35    1
    50    56    54    1
    51     8     7   ar
    52    64    65    1
    53    54    55    1
    54    35    34    1
    55    35    38    1
    56     7     6    1
    57     7     9   ar
    58    67    66    2
    59    40    39    2
    60    65    66    1
    61    65    68    1
    62    70    69   ar
    63    68    69    1
    64    69    71   ar
    65    39    38    1
    66    39    41   am
    67    80    78   ar
    68    80    82   ar
    69    78    77   ar
    70    82    81   ar
    71    77    76    1
    72    77    79   ar
    73    76    73    1
    74    72    73    1
    75    75    74    2
    76    81    79   ar
    77    73    74    1
