@<TRIPOS>MOLECULE
tmp/1kziA02.pdb
 82 79 0 0 0
SMALL
GASTEIGER

@<TRIPOS>ATOM
      1  N         94.8650   29.4240   -1.3120 N.3   115  LEU115     -0.1231
      2  CA        95.2560   30.5780   -0.5140 C.3   115  LEU115      0.1693
      3  C         94.4830   31.8190   -0.9540 C.2   115  LEU115      0.2592
      4  O         94.0450   32.6150   -0.1200 O.2   115  LEU115     -0.2718
      5  CB        96.7640   30.8180   -0.6180 C.3   115  LEU115      0.0284
      6  CG        97.5950   29.9370    0.3230 C.3   115  LEU115      0.0019
      7  CD1       99.0680   30.0950   -0.0020 C.3   115  LEU115      0.0001
      8  CD2       97.3150   30.3210    1.7730 C.3   115  LEU115      0.0001
      9  N         94.2980   31.9720   -2.2610 N.am  116  ASN116     -0.1974
     10  CA        93.5590   33.1180   -2.7770 C.3   116  ASN116      0.1688
     11  C         92.0930   33.0370   -2.3770 C.2   116  ASN116      0.2292
     12  O         91.4800   34.0520   -2.0620 O.2   116  ASN116     -0.2864
     13  CB        93.6870   33.2120   -4.2980 C.3   116  ASN116      0.1181
     14  CG        95.0420   33.7320   -4.7330 C.2   116  ASN116      0.2629
     15  OD1       95.8250   34.2210   -3.9150 O.2   116  ASN116     -0.2716
     16  ND2       95.3210   33.6440   -6.0300 N.am  116  ASN116     -0.0877
     17  N         90.9160   31.5170    0.3200 N.3   118  LEU118     -0.1231
     18  CA        90.8160   31.7690    1.7480 C.3   118  LEU118      0.1693
     19  C         90.8650   33.2590    2.0250 C.2   118  LEU118      0.2591
     20  O         90.2110   33.7500    2.9430 O.2   118  LEU118     -0.2718
     21  CB        91.9440   31.0660    2.4990 C.3   118  LEU118      0.0284
     22  CG        91.7790   29.5520    2.6220 C.3   118  LEU118      0.0019
     23  CD1       93.0320   28.9510    3.2520 C.3   118  LEU118      0.0001
     24  CD2       90.5430   29.2420    3.4650 C.3   118  LEU118      0.0001
     25  N         91.6400   33.9760    1.2220 N.am  119  LYS119     -0.1980
     26  CA        91.7750   35.4180    1.3790 C.3   119  LYS119      0.1596
     27  C         90.5670   36.1970    0.8640 C.2   119  LYS119      0.2287
     28  O         90.0660   37.0970    1.5420 O.2   119  LYS119     -0.2864
     29  CB        93.0290   35.9070    0.6460 C.3   119  LYS119      0.0298
     30  CG        93.1250   37.4250    0.5280 C.3   119  LYS119      0.0038
     31  CD        94.2570   37.8400   -0.3970 C.3   119  LYS119      0.0206
     32  CE        94.2750   39.3470   -0.6040 C.3   119  LYS119      0.1093
     33  NZ        95.3480   39.7720   -1.5500 N.3   119  LYS119     -0.1314
     34  N         99.5840   32.0890    7.2720 N.3   190  GLN190     -0.1231
     35  CA        99.6580   32.9360    6.0850 C.3   190  GLN190      0.1698
     36  C         98.4030   33.7940    5.9320 C.2   190  GLN190      0.2592
     37  O         98.4540   34.8880    5.3720 O.2   190  GLN190     -0.2718
     38  CB        99.8330   32.0790    4.8270 C.3   190  GLN190      0.0381
     39  CG       101.1920   31.4090    4.7210 C.3   190  GLN190      0.0905
     40  CD       102.3230   32.4100    4.8260 C.2   190  GLN190      0.2608
     41  OE1      102.4400   33.3210    4.0040 O.2   190  GLN190     -0.2717
     42  NE2      103.1570   32.2520    5.8450 N.am  190  GLN190     -0.0878
     43  N         97.2840   33.2960    6.4470 N.am  191  CYS191     -0.1970
     44  CA        96.0030   33.9830    6.3390 C.3   191  CYS191      0.1712
     45  C         95.5070   34.6790    7.5980 C.2   191  CYS191      0.2296
     46  O         94.3520   35.1060    7.6540 O.2   191  CYS191     -0.2864
     47  CB        94.9540   32.9790    5.8830 C.3   191  CYS191      0.0983
     48  SG        95.2320   32.4190    4.2020 S.3   191  CYS191     -0.0798
     49  N        107.2100   34.9370    3.4730 N.3   236  GLU236     -0.1231
     50  CA       106.5070   35.7820    2.5210 C.3   236  GLU236      0.1699
     51  C        105.3930   35.0080    1.8150 C.2   236  GLU236      0.2593
     52  O        104.4160   35.5950    1.3540 O.2   236  GLU236     -0.2718
     53  CB       107.4950   36.3490    1.5010 C.3   236  GLU236      0.0402
     54  CG       107.3240   37.8450    1.2510 C.3   236  GLU236      0.1161
     55  CD       107.4450   38.6700    2.5260 C.2   236  GLU236      0.3649
     56  OE1      108.4950   38.5800    3.1990 O.co2 236  GLU236     -0.2457
     57  OE2      106.4900   39.4090    2.8520 O.co2 236  GLU236     -0.2457
     58  N        105.5430   33.6890    1.7300 N.am  237  SER237     -0.1938
     59  CA       104.5220   32.8530    1.1030 C.3   237  SER237      0.2055
     60  C        104.5320   31.4630    1.7220 C.2   237  SER237      0.2643
     61  O        105.4650   31.0920    2.4300 O.2   237  SER237     -0.2714
     62  CB       104.7520   32.7360   -0.4080 C.3   237  SER237      0.2130
     63  OG       105.7130   31.7430   -0.7140 O.3   237  SER237     -0.2179
     64  N        103.4820   30.7030    1.4390 N.am  238  ILE238     -0.1963
     65  CA       103.3400   29.3490    1.9510 C.3   238  ILE238      0.1727
     66  C        104.4430   28.4510    1.3840 C.2   238  ILE238      0.2616
     67  O        104.6850   27.3560    1.8890 O.2   238  ILE238     -0.2715
     68  CB       101.9490   28.7710    1.5550 C.3   238  ILE238      0.0290
     69  CG1      101.6680   27.4700    2.3120 C.3   238  ILE238      0.0022
     70  CG2      101.8950   28.5230    0.0560 C.3   238  ILE238      0.0023
     71  CD1      101.3780   27.6680    3.7760 C.3   238  ILE238      0.0001
     72  N        105.1250   28.9270    0.3440 N.am  239  PHE239     -0.1974
     73  CA       106.1810   28.1470   -0.2970 C.3   239  PHE239      0.1639
     74  C        107.5750   28.5000    0.1940 C.2   239  PHE239      0.2290
     75  O        108.5630   27.9980   -0.3270 O.2   239  PHE239     -0.2864
     76  CB       106.1190   28.3500   -1.8120 C.3   239  PHE239      0.0560
     77  CG       104.7590   28.1070   -2.3980 C.ar  239  PHE239     -0.0200
     78  CD1      104.1830   26.8440   -2.3400 C.ar  239  PHE239     -0.0042
     79  CD2      104.0280   29.1530   -2.9500 C.ar  239  PHE239     -0.0042
     80  CE1      102.9020   26.6200   -2.8300 C.ar  239  PHE239     -0.0003
     81  CE2      102.7410   28.9410   -3.4450 C.ar  239  PHE239     -0.0003
     82  CZ       102.1750   27.6730   -3.3790 C.ar  239  PHE239     -0.0000
@<TRIPOS>BOND
     1    16    14   am
     2    14    13    1
     3    14    15    2
     4    13    10    1
     5    81    82   ar
     6    81    79   ar
     7    82    80   ar
     8    79    77   ar
     9    80    78   ar
    10    10    11    1
    11    10     9    1
    12    77    78   ar
    13    77    76    1
    14    11    12    2
    15     9     3   am
    16    76    73    1
    17    33    32    1
    18     1     2    1
    19     3     2    1
    20     3     4    2
    21    63    62    1
    22     5     2    1
    23     5     6    1
    24    32    31    1
    25    62    59    1
    26    31    30    1
    27    75    74    2
    28    73    74    1
    29    73    72    1
    30     7     6    1
    31    70    68    1
    32    17    18    1
    33     6     8    1
    34    72    66   am
    35    30    29    1
    36    29    26    1
    37    27    26    1
    38    27    28    2
    39    59    60    1
    40    59    58    1
    41    25    26    1
    42    25    19   am
    43    54    53    1
    44    54    55    1
    45    52    51    2
    46    66    67    2
    47    66    65    1
    48    64    60   am
    49    64    65    1
    50    53    50    1
    51    68    65    1
    52    68    69    1
    53    60    61    2
    54    58    51   am
    55    18    19    1
    56    18    21    1
    57    51    50    1
    58    19    20    2
    59    69    71    1
    60    21    22    1
    61    50    49    1
    62    55    57   ar
    63    55    56   ar
    64    22    23    1
    65    22    24    1
    66    41    40    2
    67    48    47    1
    68    39    40    1
    69    39    38    1
    70    40    42   am
    71    38    35    1
    72    37    36    2
    73    47    44    1
    74    36    35    1
    75    36    43   am
    76    35    34    1
    77    44    43    1
    78    44    45    1
    79    45    46    2
