@<TRIPOS>MOLECULE
tmp/1kzlA00.pdb
 133 127 0 0 0
SMALL
GASTEIGER

@<TRIPOS>ATOM
      1  N         42.5760   22.2670   20.2000 N.3     4  GLY4       -0.1210
      2  CA        43.2570   21.6670   19.0640 C.3     4  GLY4        0.1956
      3  C         43.7800   22.7430   18.1260 C.2     4  GLY4        0.2612
      4  O         44.3360   22.4490   17.0630 O.2     4  GLY4       -0.2717
      5  N         43.5750   24.0020   18.5050 N.am    5  LEU5       -0.1965
      6  CA        44.0730   25.1260   17.7170 C.3     5  LEU5        0.1728
      7  C         45.4030   25.4920   18.3730 C.2     5  LEU5        0.2616
      8  O         45.4490   26.2510   19.3390 O.2     5  LEU5       -0.2715
      9  CB        43.0960   26.3080   17.7860 C.3     5  LEU5        0.0311
     10  CG        41.6720   26.0220   17.2840 C.3     5  LEU5        0.0022
     11  CD1       40.7780   27.2270   17.5550 C.3     5  LEU5        0.0001
     12  CD2       41.7050   25.6930   15.7910 C.3     5  LEU5        0.0001
     13  N         46.4850   24.9210   17.8590 N.am    6  VAL6       -0.1977
     14  CA        47.8110   25.1630   18.4070 C.3     6  VAL6        0.1596
     15  C         48.1280   26.6580   18.4570 C.2     6  VAL6        0.2287
     16  O         47.9520   27.3640   17.4700 O.2     6  VAL6       -0.2864
     17  CB        48.8630   24.4080   17.5780 C.3     6  VAL6        0.0276
     18  CG1       50.2660   24.7220   18.0840 C.3     6  VAL6        0.0022
     19  CG2       48.5830   22.8970   17.6680 C.3     6  VAL6        0.0022
     20  N         35.6520   26.5750   16.8360 N.3    95  GLY95      -0.1210
     21  CA        37.0020   26.4950   16.3160 C.3    95  GLY95       0.1956
     22  C         37.5930   25.2770   16.9980 C.2    95  GLY95       0.2612
     23  O         37.5280   25.1700   18.2220 O.2    95  GLY95      -0.2717
     24  N         38.1580   24.3580   16.2220 N.am   96  GLY96      -0.1956
     25  CA        38.7140   23.1520   16.8110 C.3    96  GLY96       0.1869
     26  C         37.5850   22.3210   17.3950 C.2    96  GLY96       0.2309
     27  O         36.4300   22.4640   16.9840 O.2    96  GLY96      -0.2863
     28  N         36.4560   14.7090   13.2620 N.3   139  TYR139     -0.1241
     29  CA        37.5760   15.3990   13.8870 C.3   139  TYR139      0.1605
     30  C         38.6100   14.3860   14.3850 C.2   139  TYR139      0.2264
     31  O         38.3300   13.1890   14.5110 O.2   139  TYR139     -0.2867
     32  CB        37.1100   16.1970   15.1040 C.3   139  TYR139      0.0534
     33  CG        36.3960   17.4920   14.8120 C.ar  139  TYR139     -0.0201
     34  CD1       37.0890   18.5920   14.3200 C.ar  139  TYR139     -0.0009
     35  CD2       35.0310   17.6320   15.0710 C.ar  139  TYR139     -0.0009
     36  CE1       36.4480   19.8010   14.0950 C.ar  139  TYR139      0.0417
     37  CE2       34.3770   18.8410   14.8480 C.ar  139  TYR139      0.0417
     38  CZ        35.0940   19.9200   14.3610 C.ar  139  TYR139      0.1957
     39  OH        34.4670   21.1200   14.1400 O.3   139  TYR139     -0.2866
     40  N         46.8520   18.9390   17.2380 N.3   145  THR145     -0.1203
     41  CA        46.2770   19.7630   16.1830 C.3   145  THR145      0.1994
     42  C         44.9020   19.2460   15.7540 C.2   145  THR145      0.2619
     43  O         44.7570   18.0740   15.4100 O.2   145  THR145     -0.2717
     44  CB        47.1860   19.7590   14.9530 C.3   145  THR145      0.1784
     45  OG1       48.5390   19.9980   15.3650 O.3   145  THR145     -0.2211
     46  CG2       46.7490   20.8320   13.9610 C.3   145  THR145      0.0376
     47  N         43.8950   20.1140   15.7790 N.am  146  SER146     -0.1937
     48  CA        42.5610   19.7040   15.3530 C.3   146  SER146      0.2055
     49  C         42.5860   19.6250   13.8310 C.2   146  SER146      0.2643
     50  O         42.9190   20.6060   13.1540 O.2   146  SER146     -0.2714
     51  CB        41.5070   20.7180   15.8080 C.3   146  SER146      0.2130
     52  OG        40.2220   20.3490   15.3320 O.3   146  SER146     -0.2179
     53  N         42.2570   18.4520   13.2960 N.am  147  LEU147     -0.1963
     54  CA        42.2630   18.2470   11.8540 C.3   147  LEU147      0.1728
     55  C         41.0410   17.4700   11.3700 C.2   147  LEU147      0.2616
     56  O         40.3780   16.7700   12.1400 O.2   147  LEU147     -0.2715
     57  CB        43.5420   17.5130   11.4350 C.3   147  LEU147      0.0311
     58  CG        44.8750   18.1890   11.7960 C.3   147  LEU147      0.0022
     59  CD1       46.0280   17.2160   11.5550 C.3   147  LEU147      0.0001
     60  CD2       45.0560   19.4580   10.9720 C.3   147  LEU147      0.0001
     61  N         40.7590   17.5900   10.0790 N.am  148  THR148     -0.1951
     62  CA        39.6190   16.9180    9.4810 C.3   148  THR148      0.1897
     63  C         40.0200   15.6580    8.7180 C.2   148  THR148      0.2313
     64  O         40.8470   15.7070    7.8070 O.2   148  THR148     -0.2863
     65  CB        38.8810   17.8760    8.5200 C.3   148  THR148      0.1794
     66  OG1       38.6080   19.1100    9.1980 O.3   148  THR148     -0.2208
     67  CG2       37.5650   17.2580    8.0530 C.3   148  THR148      0.0378
     68  N         40.1720   13.0160    6.0480 N.3   150  THR150     -0.1218
     69  CA        39.8580   13.0440    4.6200 C.3   150  THR150      0.1862
     70  C         39.7240   11.6460    4.0240 C.2   150  THR150      0.2287
     71  O         39.2220   11.4790    2.9110 O.2   150  THR150     -0.2866
     72  CB        40.9450   13.7820    3.8340 C.3   150  THR150      0.1770
     73  OG1       42.2250   13.2130    4.1450 O.3   150  THR150     -0.2211
     74  CG2       40.9410   15.2730    4.1820 C.3   150  THR150      0.0375
     75  N         44.2860   16.5800    5.3990 N.3   160  MET160     -0.1230
     76  CA        44.8210   17.5600    4.4570 C.3   160  MET160      0.1702
     77  C         45.2150   18.7960    5.2570 C.2   160  MET160      0.2592
     78  O         44.3760   19.3850    5.9310 O.2   160  MET160     -0.2718
     79  CB        43.7560   17.9350    3.4180 C.3   160  MET160      0.0401
     80  CG        43.6830   17.0240    2.1970 C.3   160  MET160      0.0596
     81  SD        44.9530   17.4150    0.9560 S.3   160  MET160     -0.1393
     82  CE        44.8250   15.9750   -0.1260 C.3   160  MET160      0.0692
     83  N         46.4850   19.1840    5.1860 N.am  161  MET161     -0.1965
     84  CA        46.9590   20.3510    5.9240 C.3   161  MET161      0.1736
     85  C         47.0370   21.5790    5.0260 C.2   161  MET161      0.2616
     86  O         47.8560   21.6420    4.1110 O.2   161  MET161     -0.2715
     87  CB        48.3330   20.0720    6.5390 C.3   161  MET161      0.0427
     88  CG        48.8640   21.2180    7.3970 C.3   161  MET161      0.0599
     89  SD        50.2780   20.7330    8.4120 S.3   161  MET161     -0.1393
     90  CE        49.4300   19.8400    9.7070 C.3   161  MET161      0.0692
     91  N         46.1850   22.5590    5.3040 N.am  162  ILE162     -0.1977
     92  CA        46.1390   23.7760    4.5040 C.3   162  ILE162      0.1596
     93  C         47.3110   24.7130    4.7740 C.2   162  ILE162      0.2287
     94  O         48.0160   24.5780    5.7770 O.2   162  ILE162     -0.2864
     95  CB        44.8120   24.5260    4.7360 C.3   162  ILE162      0.0276
     96  CG1       44.7610   25.1000    6.1550 C.3   162  ILE162      0.0022
     97  CG2       43.6530   23.5640    4.5230 C.3   162  ILE162      0.0022
     98  CD1       43.4800   25.8540    6.4690 C.3   162  ILE162      0.0001
     99  N         47.5720   27.8400    5.7950 N.3   164  TYR164     -0.1227
    100  CA        47.5590   28.5640    7.0600 C.3   164  TYR164      0.1736
    101  C         48.1500   27.7750    8.2290 C.2   164  TYR164      0.2596
    102  O         48.8730   28.3270    9.0630 O.2   164  TYR164     -0.2718
    103  CB        46.1290   28.9930    7.3980 C.3   164  TYR164      0.0548
    104  CG        45.9730   29.5360    8.7980 C.ar  164  TYR164     -0.0200
    105  CD1       45.7800   28.6780    9.8830 C.ar  164  TYR164     -0.0009
    106  CD2       46.0590   30.9060    9.0470 C.ar  164  TYR164     -0.0009
    107  CE1       45.6810   29.1720   11.1820 C.ar  164  TYR164      0.0417
    108  CE2       45.9610   31.4090   10.3390 C.ar  164  TYR164      0.0417
    109  CZ        45.7750   30.5400   11.4020 C.ar  164  TYR164      0.1957
    110  OH        45.6930   31.0390   12.6800 O.3   164  TYR164     -0.2866
    111  N         47.8410   26.4850    8.2760 N.am  165  THR165     -0.1953
    112  CA        48.3010   25.6070    9.3460 C.3   165  THR165      0.1897
    113  C         49.7720   25.1850    9.2550 C.2   165  THR165      0.2313
    114  O         50.4380   25.0100   10.2770 O.2   165  THR165     -0.2863
    115  CB        47.4190   24.3370    9.3980 C.3   165  THR165      0.1794
    116  OG1       46.0620   24.7130    9.6810 O.3   165  THR165     -0.2208
    117  CG2       47.9150   23.3740   10.4770 C.3   165  THR165      0.0378
    118  N         52.1510   26.8790   11.4170 N.3   168  LYS168     -0.1231
    119  CA        51.7750   26.9400   12.8260 C.3   168  LYS168      0.1693
    120  C         52.0130   25.6620   13.6260 C.2   168  LYS168      0.2591
    121  O         51.9840   25.7010   14.8550 O.2   168  LYS168     -0.2718
    122  CB        50.2940   27.3180   12.9570 C.3   168  LYS168      0.0285
    123  CG        49.8290   28.4630   12.0600 C.3   168  LYS168      0.0035
    124  CD        50.4000   29.8020   12.4800 C.3   168  LYS168      0.0206
    125  CE        49.7430   30.9360   11.6970 C.3   168  LYS168      0.1093
    126  NZ        49.9460   30.7840   10.2300 N.3   168  LYS168     -0.1314
    127  N         52.2380   24.5370   12.9480 N.am  169  VAL169     -0.1980
    128  CA        52.4380   23.2630   13.6430 C.3   169  VAL169      0.1595
    129  C         53.6550   22.4730   13.1590 C.2   169  VAL169      0.2287
    130  O         54.0740   22.6070   12.0120 O.2   169  VAL169     -0.2864
    131  CB        51.1850   22.3750   13.5130 C.3   169  VAL169      0.0276
    132  CG1       49.9790   23.0950   14.1060 C.3   169  VAL169      0.0022
    133  CG2       50.9330   22.0430   12.0500 C.3   169  VAL169      0.0022
@<TRIPOS>BOND
     1    82    81    1
     2    81    80    1
     3    80    79    1
     4    71    70    2
     5    79    76    1
     6    72    73    1
     7    72    74    1
     8    72    69    1
     9    70    69    1
    10    86    85    2
    11    76    77    1
    12    76    75    1
    13    92    95    1
    14    92    93    1
    15    92    91    1
    16    97    95    1
    17    69    68    1
    18    95    96    1
    19    93    94    2
    20    85    91   am
    21    85    84    1
    22    83    77   am
    23    83    84    1
    24    77    78    2
    25    99   100    1
    26    84    87    1
    27    96    98    1
    28    87    88    1
    29   100   103    1
    30   100   101    1
    31    88    89    1
    32   103   104    1
    33    64    63    2
    34    67    65    1
    35   101   111   am
    36   101   102    2
    37   111   112    1
    38    89    90    1
    39    65    66    1
    40    65    62    1
    41    63    62    1
    42   104   106   ar
    43   104   105   ar
    44   106   108   ar
    45   113   112    1
    46   113   114    2
    47   112   115    1
    48   115   116    1
    49   115   117    1
    50    62    61    1
    51   105   107   ar
    52    61    55   am
    53   126   125    1
    54   108   109   ar
    55    60    58    1
    56   107   109   ar
    57    55    54    1
    58    55    56    2
    59   109   110    1
    60   118   119    1
    61    57    58    1
    62    57    54    1
    63    59    58    1
    64   125   124    1
    65    54    53    1
    66   130   129    2
    67   133   131    1
    68   123   124    1
    69   123   122    1
    70   119   122    1
    71   119   120    1
    72   127   120   am
    73   127   128    1
    74    50    49    2
    75   129   128    1
    76    28    29    1
    77    53    49   am
    78   131   128    1
    79   131   132    1
    80   120   121    2
    81    49    48    1
    82    29    30    1
    83    29    32    1
    84    46    44    1
    85    36    34   ar
    86    36    38   ar
    87    39    38    1
    88    34    33   ar
    89    38    37   ar
    90    30    31    2
    91    33    35   ar
    92    33    32    1
    93    37    35   ar
    94    44    45    1
    95    44    41    1
    96    52    51    1
    97    48    47    1
    98    48    51    1
    99    43    42    2
   100    42    47   am
   101    42    41    1
   102    12    10    1
   103    41    40    1
   104    24    25    1
   105    24    22   am
   106    21    20    1
   107    21    22    1
   108    25    26    1
   109    27    26    2
   110    22    23    2
   111     4     3    2
   112    10    11    1
   113    10     9    1
   114    16    15    2
   115    17    19    1
   116    17    18    1
   117    17    14    1
   118     6     9    1
   119     6     7    1
   120     6     5    1
   121    13     7   am
   122    13    14    1
   123     3     5   am
   124     3     2    1
   125     7     8    2
   126    14    15    1
   127     2     1    1
