@<TRIPOS>MOLECULE
tmp/1kzlA01.pdb
 102 97 0 0 0
SMALL
GASTEIGER

@<TRIPOS>ATOM
      1  N         47.5980   23.3920   33.2320 N.3    41  SER41      -0.1217
      2  CA        47.6600   22.2970   32.2730 C.3    41  SER41       0.1889
      3  C         48.0290   22.8520   30.9040 C.2    41  SER41       0.2288
      4  O         47.3760   23.7710   30.4010 O.2    41  SER41      -0.2866
      5  CB        46.3100   21.5800   32.1630 C.3    41  SER41       0.2089
      6  OG        46.0530   20.7850   33.3030 O.3    41  SER41      -0.2183
      7  N         49.5810   16.4280   24.3870 N.3    47  THR47      -0.1203
      8  CA        49.6360   15.6900   25.6390 C.3    47  THR47       0.1994
      9  C         49.4500   16.6550   26.8030 C.2    47  THR47       0.2618
     10  O         50.2770   17.5420   27.0170 O.2    47  THR47      -0.2717
     11  CB        50.9960   14.9720   25.8000 C.3    47  THR47       0.1784
     12  OG1       51.2970   14.2390   24.6030 O.3    47  THR47      -0.2211
     13  CG2       50.9510   14.0040   26.9810 C.3    47  THR47       0.0376
     14  N         48.3600   16.4940   27.5500 N.am   48  CYS48      -0.1955
     15  CA        48.1080   17.3650   28.6890 C.3    48  CYS48       0.1843
     16  C         49.1310   17.0720   29.7790 C.2    48  CYS48       0.2625
     17  O         49.2410   15.9370   30.2460 O.2    48  CYS48      -0.2714
     18  CB        46.6930   17.1500   29.2460 C.3    48  CYS48       0.0997
     19  SG        46.3840   18.1930   30.6800 S.3    48  CYS48      -0.0797
     20  N         49.8900   18.0980   30.1650 N.am   49  LEU49      -0.1963
     21  CA        50.9120   17.9690   31.2010 C.3    49  LEU49       0.1728
     22  C         50.7610   19.1090   32.2130 C.2    49  LEU49       0.2616
     23  O         50.2710   20.1910   31.8730 O.2    49  LEU49      -0.2715
     24  CB        52.3170   18.0000   30.5730 C.3    49  LEU49       0.0311
     25  CG        52.6820   16.8650   29.6000 C.3    49  LEU49       0.0022
     26  CD1       54.0860   17.0860   29.0430 C.3    49  LEU49       0.0001
     27  CD2       52.6180   15.5230   30.3200 C.3    49  LEU49       0.0001
     28  N         51.1930   18.8600   33.4460 N.am   50  THR50      -0.1951
     29  CA        51.0910   19.8350   34.5350 C.3    50  THR50       0.1897
     30  C         52.3750   20.6340   34.7600 C.2    50  THR50       0.2313
     31  O         53.4450   20.0620   34.9660 O.2    50  THR50      -0.2863
     32  CB        50.7330   19.1220   35.8690 C.3    50  THR50       0.1794
     33  OG1       49.5150   18.3840   35.7080 O.3    50  THR50      -0.2208
     34  CG2       50.5710   20.1320   36.9980 C.3    50  THR50       0.0378
     35  N         56.6250   17.2110   34.4360 N.3    62  GLY62      -0.1210
     36  CA        57.0480   15.8810   34.8130 C.3    62  GLY62       0.1956
     37  C         56.2500   14.9650   33.9060 C.2    62  GLY62       0.2612
     38  O         55.0240   15.0690   33.8490 O.2    62  GLY62      -0.2717
     39  N         56.9240   14.0800   33.1830 N.am   63  ILE63      -0.1965
     40  CA        56.2190   13.1840   32.2750 C.3    63  ILE63       0.1727
     41  C         56.3280   11.7410   32.7550 C.2    63  ILE63       0.2616
     42  O         57.4150   11.1620   32.7970 O.2    63  ILE63      -0.2715
     43  CB        56.7820   13.3090   30.8430 C.3    63  ILE63       0.0290
     44  CG1       56.8230   14.7910   30.4400 C.3    63  ILE63       0.0022
     45  CG2       55.9220   12.5030   29.8650 C.3    63  ILE63       0.0023
     46  CD1       57.5120   15.0650   29.1020 C.3    63  ILE63       0.0001
     47  N         55.1870   11.1730   33.1270 N.am   64  ALA64      -0.1977
     48  CA        55.1240    9.8050   33.6250 C.3    64  ALA64       0.1597
     49  C         55.4260    8.7710   32.5510 C.2    64  ALA64       0.2287
     50  O         55.2090    9.0040   31.3630 O.2    64  ALA64      -0.2864
     51  CB        53.7380    9.5310   34.2310 C.3    64  ALA64       0.0319
     52  N         53.9040    6.1550   31.5960 N.3    66  GLU66      -0.1231
     53  CA        52.7550    5.8350   30.7440 C.3    66  GLU66       0.1699
     54  C         52.5770    6.9010   29.6510 C.2    66  GLU66       0.2592
     55  O         52.2500    6.5800   28.5070 O.2    66  GLU66      -0.2718
     56  CB        51.4760    5.7210   31.5830 C.3    66  GLU66       0.0402
     57  CG        50.2330    5.3530   30.7750 C.3    66  GLU66       0.1161
     58  CD        50.3230    3.9700   30.1260 C.2    66  GLU66       0.3649
     59  OE1       49.3630    3.5690   29.4390 O.co2  66  GLU66      -0.2457
     60  OE2       51.3460    3.2810   30.3020 O.co2  66  GLU66      -0.2457
     61  N         52.7930    8.1660   29.9960 N.am   67  SER67      -0.1952
     62  CA        52.6690    9.2310   28.9990 C.3    67  SER67       0.1924
     63  C         53.7410    9.0470   27.9270 C.2    67  SER67       0.2314
     64  O         53.4870    9.2340   26.7320 O.2    67  SER67      -0.2863
     65  CB        52.8180   10.6090   29.6530 C.3    67  SER67       0.2116
     66  OG        51.6970   10.9040   30.4730 O.3    67  SER67      -0.2180
     67  N         52.7540    5.9990   25.5000 N.3    70  LEU70      -0.1231
     68  CA        51.6780    6.2020   24.5320 C.3    70  LEU70       0.1693
     69  C         51.8330    7.3960   23.5920 C.2    70  LEU70       0.2592
     70  O         50.9690    7.6250   22.7440 O.2    70  LEU70      -0.2718
     71  CB        50.3420    6.3320   25.2700 C.3    70  LEU70       0.0284
     72  CG        49.8410    5.1040   26.0390 C.3    70  LEU70       0.0019
     73  CD1       48.5770    5.4590   26.8060 C.3    70  LEU70       0.0001
     74  CD2       49.5800    3.9670   25.0650 C.3    70  LEU70       0.0001
     75  N         52.9170    8.1540   23.7320 N.am   71  THR71      -0.1953
     76  CA        53.1310    9.3280   22.8820 C.3    71  THR71       0.1897
     77  C         54.5370    9.3460   22.2990 C.2    71  THR71       0.2313
     78  O         55.3060    8.4090   22.4920 O.2    71  THR71      -0.2863
     79  CB        52.9540   10.6440   23.6720 C.3    71  THR71       0.1794
     80  OG1       54.0230   10.7750   24.6170 O.3    71  THR71      -0.2208
     81  CG2       51.6260   10.6600   24.4120 C.3    71  THR71       0.0378
     82  N         43.4750   16.1240   25.6100 N.3   101  GLY101     -0.1210
     83  CA        44.9060   16.1070   25.8430 C.3   101  GLY101      0.1956
     84  C         45.3350   14.7420   26.3440 C.2   101  GLY101      0.2612
     85  O         46.4560   14.5580   26.8160 O.2   101  GLY101     -0.2717
     86  N         44.4210   13.7840   26.2610 N.am  102  HIS102     -0.1961
     87  CA        44.7000   12.4160   26.6710 C.3   102  HIS102      0.1787
     88  C         44.8990   11.5680   25.4190 C.2   102  HIS102      0.2620
     89  O         43.9490   11.0560   24.8340 O.2   102  HIS102     -0.2715
     90  CB        43.5550   11.8770   27.5370 C.3   102  HIS102      0.0785
     91  CG        43.6190   12.3430   28.9580 C.ar  102  HIS102      0.0821
     92  ND1       42.6470   12.0460   29.8890 N.ar  102  HIS102     -0.2267
     93  CD2       44.5550   13.0720   29.6130 C.ar  102  HIS102      0.1154
     94  CE1       42.9790   12.5720   31.0540 C.ar  102  HIS102      0.1986
     95  NE2       44.1330   13.2010   30.9140 N.ar  102  HIS102     -0.2212
     96  N         46.1590   11.4390   25.0230 N.am  103  VAL103     -0.1977
     97  CA        46.5610   10.6980   23.8360 C.3   103  VAL103      0.1596
     98  C         46.2330    9.2110   23.8970 C.2   103  VAL103      0.2287
     99  O         46.5250    8.5440   24.8870 O.2   103  VAL103     -0.2864
    100  CB        48.0790   10.8730   23.6000 C.3   103  VAL103      0.0276
    101  CG1       48.5520    9.9720   22.4660 C.3   103  VAL103      0.0022
    102  CG2       48.3800   12.3430   23.2980 C.3   103  VAL103      0.0022
@<TRIPOS>BOND
     1    77    78    2
     2    77    76    1
     3   101   100    1
     4    70    69    2
     5    76    79    1
     6    76    75    1
     7   102   100    1
     8    69    75   am
     9    69    68    1
    10   100    97    1
    11    79    81    1
    12    79    80    1
    13    97    98    1
    14    97    96    1
    15    98    99    2
    16     7     8    1
    17    68    71    1
    18    68    67    1
    19    12    11    1
    20    89    88    2
    21    96    88   am
    22    74    72    1
    23    71    72    1
    24    88    87    1
    25    82    83    1
    26     8    11    1
    27     8     9    1
    28    11    13    1
    29    83    84    1
    30    72    73    1
    31    86    84   am
    32    86    87    1
    33    84    85    2
    34    87    90    1
    35    64    63    2
    36     9    10    2
    37     9    14   am
    38    90    91    1
    39    14    15    1
    40    63    62    1
    41    55    54    2
    42    15    18    1
    43    15    16    1
    44    91    93   ar
    45    91    92   ar
    46    62    65    1
    47    62    61    1
    48    26    25    1
    49    46    44    1
    50    18    19    1
    51    59    58   ar
    52    25    27    1
    53    25    24    1
    54    93    95   ar
    55    54    61   am
    56    54    53    1
    57    65    66    1
    58    16    20   am
    59    16    17    2
    60    45    43    1
    61    92    94   ar
    62    58    60   ar
    63    58    57    1
    64    20    21    1
    65     4     3    2
    66    44    43    1
    67    24    21    1
    68    53    56    1
    69    53    52    1
    70    57    56    1
    71    43    40    1
    72     3     2    1
    73    95    94   ar
    74    21    22    1
    75    50    49    2
    76    23    22    2
    77     5     2    1
    78     5     6    1
    79    22    28   am
    80     2     1    1
    81    40    41    1
    82    40    39    1
    83    49    48    1
    84    41    42    2
    85    41    47   am
    86    47    48    1
    87    39    37   am
    88    28    29    1
    89    48    51    1
    90    38    37    2
    91    37    36    1
    92    35    36    1
    93    29    30    1
    94    29    32    1
    95    30    31    2
    96    33    32    1
    97    32    34    1
