@<TRIPOS>MOLECULE
tmp/1kznA00.pdb
 159 150 0 0 0
SMALL
GASTEIGER

@<TRIPOS>ATOM
      1  N         23.0290   18.3220   40.5710 N.3    29  VAL29      -0.1245
      2  CA        22.2440   19.4530   41.0710 C.3    29  VAL29       0.1561
      3  C         23.1600   20.5060   41.6950 C.2    29  VAL29       0.2260
      4  O         22.9570   21.7060   41.5060 O.2    29  VAL29      -0.2867
      5  CB        21.1950   19.0030   42.1300 C.3    29  VAL29       0.0252
      6  CG1       20.3510   20.2040   42.5830 C.3    29  VAL29       0.0019
      7  CG2       20.2960   17.9300   41.5510 C.3    29  VAL29       0.0019
      8  N         24.9110   22.6040   39.1450 N.3    32  ASN32      -0.1225
      9  CA        24.0520   23.6440   38.6040 C.3    32  ASN32       0.1785
     10  C         24.0950   24.8290   39.5670 C.2    32  ASN32       0.2597
     11  O         24.1250   25.9760   39.1420 O.2    32  ASN32      -0.2718
     12  CB        22.6100   23.1470   38.4350 C.3    32  ASN32       0.1169
     13  CG        22.4400   22.2590   37.2130 C.2    32  ASN32       0.2627
     14  OD1       22.9700   21.1540   37.1540 O.2    32  ASN32      -0.2716
     15  ND2       21.7070   22.7480   36.2260 N.am   32  ASN32      -0.0877
     16  N         24.1070   24.5370   40.8640 N.am   33  ALA33      -0.1979
     17  CA        24.1720   25.5790   41.8820 C.3    33  ALA33       0.1597
     18  C         25.5230   26.2860   41.7910 C.2    33  ALA33       0.2287
     19  O         25.5930   27.5090   41.8570 O.2    33  ALA33      -0.2864
     20  CB        23.9900   24.9750   43.2630 C.3    33  ALA33       0.0319
     21  N         27.3440   26.8590   39.2680 N.3    35  ASP35      -0.1225
     22  CA        27.3560   27.8140   38.1580 C.3    35  ASP35       0.1805
     23  C         26.8430   29.1900   38.5570 C.2    35  ASP35       0.2597
     24  O         27.4160   30.1950   38.1580 O.2    35  ASP35      -0.2718
     25  CB        26.5260   27.3110   36.9800 C.3    35  ASP35       0.1424
     26  CG        27.3610   26.5980   35.9530 C.2    35  ASP35       0.3668
     27  OD1       26.8430   26.3320   34.8470 O.co2  35  ASP35      -0.2456
     28  OD2       28.5360   26.3040   36.2490 O.co2  35  ASP35      -0.2456
     29  N         25.7580   29.2310   39.3290 N.am   36  GLU36      -0.1979
     30  CA        25.1860   30.4970   39.7830 C.3    36  GLU36       0.1602
     31  C         26.1590   31.2760   40.6540 C.2    36  GLU36       0.2287
     32  O         26.0270   32.4910   40.8140 O.2    36  GLU36      -0.2864
     33  CB        23.9000   30.2670   40.5760 C.3    36  GLU36       0.0415
     34  CG        22.6410   30.3310   39.7650 C.3    36  GLU36       0.1163
     35  CD        22.6080   31.5360   38.8450 C.2    36  GLU36       0.3649
     36  OE1       23.2580   31.4790   37.7790 O.co2  36  GLU36      -0.2457
     37  OE2       21.9470   32.5370   39.1950 O.co2  36  GLU36      -0.2457
     38  N         18.8670   20.7100   47.6970 N.3    57  VAL57      -0.1231
     39  CA        19.9550   21.6440   47.4360 C.3    57  VAL57       0.1692
     40  C         19.3680   23.0390   47.2560 C.2    57  VAL57       0.2592
     41  O         18.5080   23.2530   46.4060 O.2    57  VAL57      -0.2718
     42  CB        20.7490   21.2620   46.1610 C.3    57  VAL57       0.0266
     43  CG1       21.9210   22.2180   45.9730 C.3    57  VAL57       0.0020
     44  CG2       21.2540   19.8280   46.2680 C.3    57  VAL57       0.0020
     45  N         19.8210   23.9850   48.0670 N.am   58  GLN58      -0.1966
     46  CA        19.3320   25.3500   47.9620 C.3    58  GLN58       0.1733
     47  C         20.4690   26.3500   47.8360 C.2    58  GLN58       0.2616
     48  O         21.5510   26.1500   48.3790 O.2    58  GLN58      -0.2715
     49  CB        18.4460   25.6960   49.1650 C.3    58  GLN58       0.0408
     50  CG        19.0060   25.3090   50.5020 C.3    58  GLN58       0.0908
     51  CD        17.9650   25.4070   51.6120 C.2    58  GLN58       0.2608
     52  OE1       17.3550   26.4590   51.8130 O.2    58  GLN58      -0.2717
     53  NE2       17.7590   24.3070   52.3360 N.am   58  GLN58      -0.0878
     54  N         20.2230   27.4200   47.0900 N.am   59  ASP59      -0.1971
     55  CA        21.2250   28.4570   46.9010 C.3    59  ASP59       0.1709
     56  C         20.5270   29.7960   46.9340 C.2    59  ASP59       0.2293
     57  O         19.3040   29.8530   47.0160 O.2    59  ASP59      -0.2864
     58  CB        21.9720   28.2630   45.5640 C.3    59  ASP59       0.1436
     59  CG        21.1130   28.5670   44.3320 C.2    59  ASP59       0.3671
     60  OD1       21.4790   28.0920   43.2360 O.co2  59  ASP59      -0.2456
     61  OD2       20.0910   29.2850   44.4310 O.co2  59  ASP59      -0.2456
     62  N         20.0510   33.8330   41.4330 N.3    62  ARG62      -0.1231
     63  CA        18.9460   34.5860   40.8460 C.3    62  ARG62       0.1694
     64  C         17.6280   33.8290   40.8260 C.2    62  ARG62       0.2593
     65  O         16.5670   34.4400   40.8550 O.2    62  ARG62      -0.2718
     66  CB        19.2880   34.9840   39.4040 C.3    62  ARG62       0.0321
     67  CG        20.3560   36.0290   39.2820 C.3    62  ARG62       0.0489
     68  CD        20.8690   36.1090   37.8850 C.3    62  ARG62       0.2205
     69  NE        21.5710   34.8930   37.4870 N.pl3  62  ARG62      -0.0865
     70  CZ        22.2420   34.7620   36.3450 C.cat  62  ARG62       0.5346
     71  NH1       22.8550   33.6210   36.0530 N.pl3  62  ARG62       0.1354
     72  NH2       22.3000   35.7770   35.4940 N.pl3  62  ARG62       0.1354
     73  N         17.7020   32.5020   40.7790 N.am   63  GLY63      -0.1942
     74  CA        16.5000   31.6930   40.6970 C.3    63  GLY63       0.2014
     75  C         16.2970   31.3770   39.2250 C.2    63  GLY63       0.2639
     76  O         16.5230   32.2460   38.3830 O.2    63  GLY63      -0.2714
     77  N         15.8940   30.1500   38.9020 N.am   64  ILE64      -0.1963
     78  CA        15.6850   29.7490   37.5080 C.3    64  ILE64       0.1712
     79  C         14.5810   30.5910   36.8700 C.2    64  ILE64       0.2458
     80  O         13.4910   30.7200   37.4260 O.2    64  ILE64      -0.2730
     81  CB        15.2960   28.2600   37.4090 C.3    64  ILE64       0.0289
     82  CG1       16.3670   27.3940   38.0810 C.3    64  ILE64       0.0022
     83  CG2       15.1260   27.8610   35.9470 C.3    64  ILE64       0.0023
     84  CD1       15.9640   25.9420   38.2150 C.3    64  ILE64       0.0001
     85  N         14.8460   31.1660   35.6830 N.am   65  PRO65      -0.2716
     86  CA        13.8440   31.9980   35.0070 C.3    65  PRO65       0.1536
     87  C         12.4460   31.3950   35.0050 C.2    65  PRO65       0.2599
     88  O         12.2580   30.2320   34.6400 O.2    65  PRO65      -0.2715
     89  CB        14.4260   32.1600   33.6020 C.3    65  PRO65       0.0310
     90  CG        15.8950   32.2150   33.8760 C.3    65  PRO65       0.0237
     91  CD        16.0710   31.0680   34.8680 C.3    65  PRO65       0.0939
     92  N         11.4720   32.1980   35.4200 N.am   66  THR66      -0.1951
     93  CA        10.0860   31.7600   35.4770 C.3    66  THR66       0.1897
     94  C          9.2660   32.4640   34.4060 C.2    66  THR66       0.2313
     95  O          9.8060   33.2120   33.5970 O.2    66  THR66      -0.2863
     96  CB         9.4690   32.0480   36.8690 C.3    66  THR66       0.1794
     97  OG1        9.7250   33.4100   37.2390 O.3    66  THR66      -0.2208
     98  CG2       10.0640   31.1130   37.9230 C.3    66  THR66       0.0378
     99  N          9.9670   28.9360   31.3560 N.3    72  ALA72      -0.1245
    100  CA        11.3270   28.5780   30.9850 C.3    72  ALA72       0.1562
    101  C         11.9030   27.5500   31.9520 C.2    72  ALA72       0.2260
    102  O         12.7710   26.7620   31.5730 O.2    72  ALA72      -0.2867
    103  CB        12.1990   29.8200   30.9560 C.3    72  ALA72       0.0290
    104  N         13.5070   23.6870   31.2350 N.3    76  ILE76      -0.1231
    105  CA        14.7890   23.2720   31.8000 C.3    76  ILE76       0.1692
    106  C         14.6690   21.9590   32.5860 C.2    76  ILE76       0.2591
    107  O         15.5880   21.1420   32.5690 O.2    76  ILE76      -0.2718
    108  CB        15.3640   24.3630   32.7530 C.3    76  ILE76       0.0266
    109  CG1       15.8400   25.5740   31.9470 C.3    76  ILE76       0.0019
    110  CG2       16.5200   23.7870   33.5790 C.3    76  ILE76       0.0020
    111  CD1       17.0530   25.3030   31.0600 C.3    76  ILE76       0.0001
    112  N         13.5360   21.7640   33.2610 N.am   77  MET77      -0.1979
    113  CA        13.2980   20.5640   34.0680 C.3    77  MET77       0.1605
    114  C         12.8340   19.3280   33.2890 C.2    77  MET77       0.2287
    115  O         12.9010   18.2120   33.8060 O.2    77  MET77      -0.2864
    116  CB        12.2460   20.8540   35.1510 C.3    77  MET77       0.0413
    117  CG        12.6280   21.8900   36.1950 C.3    77  MET77       0.0598
    118  SD        13.9200   21.3240   37.3110 S.3    77  MET77      -0.1393
    119  CE        14.9780   22.7130   37.3580 C.3    77  MET77       0.0692
    120  N         19.6300   18.8370   35.3880 N.3    87  VAL87      -0.1245
    121  CA        18.6010   18.5250   36.3690 C.3    87  VAL87       0.1561
    122  C         17.4580   17.7830   35.6720 C.2    87  VAL87       0.2260
    123  O         16.6590   17.1160   36.3210 O.2    87  VAL87      -0.2867
    124  CB        18.0340   19.8170   37.0440 C.3    87  VAL87       0.0252
    125  CG1       16.8060   19.4780   37.8780 C.3    87  VAL87       0.0019
    126  CG2       19.0860   20.4490   37.9440 C.3    87  VAL87       0.0019
    127  N         12.0550   34.4310   42.8970 N.3   103  ARG103     -0.1245
    128  CA        12.5010   35.3760   41.8780 C.3   103  ARG103      0.1563
    129  C         11.4260   36.4090   41.5690 C.2   103  ARG103      0.2260
    130  O         10.2360   36.0980   41.5290 O.2   103  ARG103     -0.2867
    131  CB        12.8750   34.6420   40.5780 C.3   103  ARG103      0.0307
    132  CG        13.0850   35.5860   39.4080 C.3   103  ARG103      0.0489
    133  CD        13.2590   34.8810   38.0860 C.3   103  ARG103      0.2205
    134  NE        14.6280   34.4300   37.8870 N.pl3 103  ARG103     -0.0865
    135  CZ        15.4170   34.8310   36.8960 C.cat 103  ARG103      0.5346
    136  NH1       16.6480   34.3530   36.8090 N.pl3 103  ARG103      0.1354
    137  NH2       14.9890   35.7050   35.9960 N.pl3 103  ARG103      0.1354
    138  N         17.1410   29.2940   44.3110 N.3   132  THR132     -0.1203
    139  CA        16.4930   28.0620   43.8600 C.3   132  THR132      0.1994
    140  C         16.6490   26.8950   44.8390 C.2   132  THR132      0.2618
    141  O         17.7040   26.7240   45.4570 O.2   132  THR132     -0.2717
    142  CB        17.0520   27.6130   42.4970 C.3   132  THR132      0.1784
    143  OG1       16.8930   28.6660   41.5380 O.3   132  THR132     -0.2211
    144  CG2       16.3260   26.3640   42.0130 C.3   132  THR132      0.0376
    145  N         15.5960   26.0860   44.9590 N.am  133  MET133     -0.1965
    146  CA        15.6060   24.9350   45.8530 C.3   133  MET133      0.1736
    147  C         14.9950   23.7060   45.1740 C.2   133  MET133      0.2616
    148  O         13.8390   23.7340   44.7450 O.2   133  MET133     -0.2715
    149  CB        14.8230   25.2620   47.1310 C.3   133  MET133      0.0427
    150  CG        15.0970   24.3600   48.3100 C.3   133  MET133      0.0599
    151  SD        14.7270   22.6370   47.9980 S.3   133  MET133     -0.1393
    152  CE        12.9180   22.6540   47.9340 C.3   133  MET133      0.0692
    153  N         15.7790   22.6350   45.0790 N.am  134  VAL134     -0.1977
    154  CA        15.3270   21.3820   44.4760 C.3   134  VAL134      0.1596
    155  C         15.5500   20.2380   45.4620 C.2   134  VAL134      0.2287
    156  O         16.6480   20.0720   46.0000 O.2   134  VAL134     -0.2864
    157  CB        16.1040   21.0540   43.1730 C.3   134  VAL134      0.0276
    158  CG1       15.8090   19.6240   42.7300 C.3   134  VAL134      0.0022
    159  CG2       15.7270   22.0320   42.0770 C.3   134  VAL134      0.0022
@<TRIPOS>BOND
     1   103   100    1
     2   100    99    1
     3   100   101    1
     4   111   109    1
     5   104   105    1
     6   102   101    2
     7   105   106    1
     8   105   108    1
     9   109   108    1
    10   107   106    2
    11   106   112   am
    12   108   110    1
    13   112   113    1
    14   114   115    2
    15   114   113    1
    16    95    94    2
    17    89    90    1
    18    89    86    1
    19    90    91    1
    20   113   116    1
    21    94    93    1
    22    88    87    2
    23    27    26   ar
    24    91    85    1
    25    87    86    1
    26    87    92   am
    27    86    85    1
    28   116   117    1
    29   120   121    1
    30    92    93    1
    31    93    96    1
    32    72    70    1
    33   122   123    2
    34   122   121    1
    35    85    79   am
    36    83    81    1
    37    26    28   ar
    38    26    25    1
    39   137   135    1
    40    71    70    1
    41   117   118    1
    42    15    13   am
    43    70    69    2
    44   121   124    1
    45   136   135    1
    46    96    97    1
    47    96    98    1
    48    79    80    2
    49    79    78    1
    50   135   134    2
    51    25    22    1
    52   124   125    1
    53   124   126    1
    54    14    13    2
    55    13    12    1
    56   118   119    1
    57    81    78    1
    58    81    82    1
    59    69    68    1
    60    78    77    1
    61    36    35   ar
    62    68    67    1
    63   134   133    1
    64    82    84    1
    65   133   132    1
    66    22    23    1
    67    22    21    1
    68    24    23    2
    69    76    75    2
    70    12     9    1
    71    23    29   am
    72     9     8    1
    73     9    10    1
    74    35    37   ar
    75    35    34    1
    76    77    75   am
    77    11    10    2
    78    75    74    1
    79    67    66    1
    80    29    30    1
    81    66    63    1
    82   132   131    1
    83    10    16   am
    84    34    33    1
    85    30    33    1
    86    30    31    1
    87     1     2    1
    88   131   128    1
    89    31    32    2
    90    74    73    1
    91    73    64   am
    92    64    63    1
    93    64    65    2
    94    63    62    1
    95    16    17    1
    96     2     3    1
    97     2     5    1
    98     4     3    2
    99   130   129    2
   100   143   142    1
   101     7     5    1
   102   129   128    1
   103    18    19    2
   104    18    17    1
   105   128   127    1
   106    17    20    1
   107   144   142    1
   108   159   157    1
   109     5     6    1
   110   142   139    1
   111   158   157    1
   112   157   154    1
   113    60    59   ar
   114   139   138    1
   115   139   140    1
   116    59    61   ar
   117    59    58    1
   118   154   153    1
   119   154   155    1
   120   148   147    2
   121   140   145   am
   122   140   141    2
   123   145   146    1
   124   153   147   am
   125   147   146    1
   126   155   156    2
   127    58    55    1
   128   146   149    1
   129    43    42    1
   130    42    44    1
   131    42    39    1
   132    41    40    2
   133    55    56    1
   134    55    54    1
   135    56    57    2
   136    54    47   am
   137   149   150    1
   138    40    39    1
   139    40    45   am
   140    39    38    1
   141    47    46    1
   142    47    48    2
   143   152   151    1
   144    46    45    1
   145    46    49    1
   146   151   150    1
   147    49    50    1
   148    50    51    1
   149    51    52    2
   150    51    53   am
