@<TRIPOS>MOLECULE
tmp/1kzoB01.pdb
 99 98 0 0 0
SMALL
GASTEIGER

@<TRIPOS>ATOM
      1  N         92.9800    5.8280   27.4910 N.3    74  THR74      -0.1218
      2  CA        93.7540    4.6840   27.9510 C.3    74  THR74       0.1862
      3  C         94.4250    5.0010   29.2950 C.2    74  THR74       0.2287
      4  O         94.3850    6.1470   29.7750 O.2    74  THR74      -0.2866
      5  CB        94.8180    4.2460   26.9110 C.3    74  THR74       0.1770
      6  OG1       95.8620    5.2240   26.8130 O.3    74  THR74      -0.2211
      7  CG2       94.1780    4.0890   25.5600 C.3    74  THR74       0.0375
      8  N         97.2300    5.5220   29.8660 N.3    76  ALA76      -0.1231
      9  CA        98.3390    6.4280   29.6350 C.3    76  ALA76       0.1694
     10  C         97.9550    7.7540   30.3180 C.2    76  ALA76       0.2592
     11  O         98.8060    8.5460   30.7230 O.2    76  ALA76      -0.2718
     12  CB        98.5190    6.6390   28.1380 C.3    76  ALA76       0.0304
     13  N         96.6520    7.9700   30.4550 N.am   77  TYR77      -0.1976
     14  CA        96.1420    9.1750   31.0670 C.3    77  TYR77       0.1639
     15  C         95.9210    9.1030   32.5780 C.2    77  TYR77       0.2290
     16  O         95.2600    9.9650   33.1570 O.2    77  TYR77      -0.2864
     17  CB        94.8930    9.6480   30.3160 C.3    77  TYR77       0.0560
     18  CG        95.2700   10.3630   29.0370 C.ar   77  TYR77      -0.0198
     19  CD1       95.4890    9.6560   27.8530 C.ar   77  TYR77      -0.0009
     20  CD2       95.5250   11.7350   29.0380 C.ar   77  TYR77      -0.0009
     21  CE1       95.9610   10.2970   26.7130 C.ar   77  TYR77       0.0417
     22  CE2       96.0000   12.3820   27.8980 C.ar   77  TYR77       0.0417
     23  CZ        96.2200   11.6600   26.7410 C.ar   77  TYR77       0.1957
     24  OH        96.7230   12.2790   25.6120 O.3    77  TYR77      -0.2866
     25  N         98.1040    9.7140   34.7430 N.3    79  CYS79      -0.1221
     26  CA        98.8300   10.8700   35.2710 C.3    79  CYS79       0.1808
     27  C         97.9520   12.1130   35.2760 C.2    79  CYS79       0.2601
     28  O         98.3170   13.1330   35.8580 O.2    79  CYS79      -0.2717
     29  CB       100.0860   11.1520   34.4350 C.3    79  CYS79       0.0970
     30  SG        99.7750   11.6590   32.7100 S.3    79  CYS79      -0.0800
     31  N         96.8060   12.0290   34.6070 N.am   80  LEU80      -0.1979
     32  CA        95.8780   13.1460   34.5430 C.3    80  LEU80       0.1596
     33  C         94.5460   12.8210   35.2260 C.2    80  LEU80       0.2287
     34  O         93.5360   13.5030   35.0190 O.2    80  LEU80      -0.2864
     35  CB        95.6970   13.6120   33.0900 C.3    80  LEU80       0.0297
     36  CG        96.8700   14.4160   32.4770 C.3    80  LEU80       0.0022
     37  CD1       96.6860   14.5520   30.9800 C.3    80  LEU80       0.0001
     38  CD2       96.9910   15.8120   33.1130 C.3    80  LEU80       0.0001
     39  N         90.2480   20.8000   27.2200 N.3    90  TRP90      -0.1241
     40  CA        91.1740   20.6800   26.1010 C.3    90  TRP90       0.1605
     41  C         90.5080   20.0870   24.8630 C.2    90  TRP90       0.2264
     42  O         90.6970   20.5760   23.7440 O.2    90  TRP90      -0.2867
     43  CB        92.3720   19.8060   26.4730 C.3    90  TRP90       0.0550
     44  CG        93.3030   20.3990   27.4660 C.ar   90  TRP90       0.0003
     45  CD1       93.5790   21.7230   27.6500 C.ar   90  TRP90       0.0946
     46  CD2       94.0900   19.6850   28.4270 C.ar   90  TRP90       0.0152
     47  NE1       94.4870   21.8790   28.6650 N.ar   90  TRP90      -0.2442
     48  CE2       94.8210   20.6470   29.1630 C.ar   90  TRP90       0.0810
     49  CE3       94.2480   18.3220   28.7400 C.ar   90  TRP90       0.0012
     50  CZ2       95.6960   20.2960   30.1940 C.ar   90  TRP90       0.0191
     51  CZ3       95.1220   17.9710   29.7640 C.ar   90  TRP90       0.0001
     52  CH2       95.8360   18.9600   30.4810 C.ar   90  TRP90       0.0015
     53  N        105.3630   12.4010   21.5570 N.3   341  SER341     -0.1202
     54  CA       104.0750   11.7570   21.3560 C.3   341  SER341      0.2020
     55  C        102.9180   12.7270   21.5690 C.2   341  SER341      0.2619
     56  O        103.0030   13.6700   22.3640 O.2   341  SER341     -0.2717
     57  CB       103.9230   10.5150   22.2550 C.3   341  SER341      0.2103
     58  OG       103.9050   10.8320   23.6420 O.3   341  SER341     -0.2182
     59  N        101.8440   12.4960   20.8290 N.am  342  ARG342     -0.1965
     60  CA       100.6610   13.3250   20.9030 C.3   342  ARG342      0.1729
     61  C         99.9730   13.2310   22.2610 C.2   342  ARG342      0.2616
     62  O        100.1170   12.2360   22.9830 O.2   342  ARG342     -0.2715
     63  CB        99.6810   12.8620   19.8370 C.3   342  ARG342      0.0348
     64  CG        99.1030   11.4960   20.1550 C.3   342  ARG342      0.0492
     65  CD        98.3630   10.9040   18.9930 C.3   342  ARG342      0.2205
     66  NE        97.6440    9.7080   19.3980 N.pl3 342  ARG342     -0.0865
     67  CZ        96.6730    9.1490   18.6890 C.cat 342  ARG342      0.5346
     68  NH1       96.3080    9.6760   17.5320 N.pl3 342  ARG342      0.1354
     69  NH2       96.0410    8.0870   19.1630 N.pl3 342  ARG342      0.1354
     70  N         99.2090   14.2660   22.5890 N.am  343  ASP343     -0.1971
     71  CA        98.4300   14.2940   23.8140 C.3   343  ASP343      0.1709
     72  C         97.4080   15.4130   23.6800 C.2   343  ASP343      0.2293
     73  O         97.5930   16.3380   22.8920 O.2   343  ASP343     -0.2864
     74  CB        99.3080   14.4250   25.0620 C.3   343  ASP343      0.1436
     75  CG       100.0350   15.7330   25.1360 C.2   343  ASP343      0.3671
     76  OD1       99.3790   16.7400   25.4430 O.co2 343  ASP343     -0.2456
     77  OD2      101.2650   15.7470   24.9280 O.co2 343  ASP343     -0.2456
     78  N         96.6470   17.8970   25.5840 N.3   345  TYR345     -0.1227
     79  CA        97.1140   19.2100   26.0060 C.3   345  TYR345      0.1736
     80  C         97.7720   19.9270   24.8150 C.2   345  TYR345      0.2595
     81  O         97.4500   21.0850   24.5110 O.2   345  TYR345     -0.2718
     82  CB        98.0990   19.0560   27.1760 C.3   345  TYR345      0.0548
     83  CG        98.9780   20.2650   27.4570 C.ar  345  TYR345     -0.0200
     84  CD1       98.4680   21.4000   28.1060 C.ar  345  TYR345     -0.0009
     85  CD2      100.3290   20.2670   27.0850 C.ar  345  TYR345     -0.0009
     86  CE1       99.2910   22.5100   28.3790 C.ar  345  TYR345      0.0417
     87  CE2      101.1520   21.3640   27.3460 C.ar  345  TYR345      0.0417
     88  CZ       100.6230   22.4840   27.9910 C.ar  345  TYR345      0.1957
     89  OH       101.4130   23.5890   28.1910 O.3   345  TYR345     -0.2866
     90  N         98.6790   19.2350   24.1290 N.am  346  HIS346     -0.1975
     91  CA        99.3490   19.8270   22.9850 C.3   346  HIS346      0.1656
     92  C         98.3990   19.9850   21.8170 C.2   346  HIS346      0.2291
     93  O         98.5500   20.9000   21.0120 O.2   346  HIS346     -0.2864
     94  CB       100.5700   19.0240   22.5920 C.3   346  HIS346      0.0771
     95  CG       101.7360   19.2510   23.4900 C.ar  346  HIS346      0.0820
     96  ND1      102.0340   18.4210   24.5500 N.ar  346  HIS346     -0.2267
     97  CD2      102.6630   20.2370   23.5140 C.ar  346  HIS346      0.1154
     98  CE1      103.0930   18.8870   25.1900 C.ar  346  HIS346      0.1986
     99  NE2      103.4910   19.9880   24.5810 N.ar  346  HIS346     -0.2212
@<TRIPOS>BOND
     1    68    67    1
     2    67    69    1
     3    67    66    2
     4    65    66    1
     5    65    64    1
     6    63    64    1
     7    63    60    1
     8    59    60    1
     9    59    55   am
    10    60    61    1
    11    93    92    2
    12    54    53    1
    13    54    55    1
    14    54    57    1
    15    55    56    2
    16    92    91    1
    17    57    58    1
    18    61    70   am
    19    61    62    2
    20    70    71    1
    21    94    91    1
    22    94    95    1
    23    73    72    2
    24    91    90    1
    25    95    97   ar
    26    95    96   ar
    27    97    99   ar
    28    72    71    1
    29    42    41    2
    30    71    74    1
    31    90    80   am
    32    81    80    2
    33    96    98   ar
    34    99    98   ar
    35    80    79    1
    36    41    40    1
    37    77    75   ar
    38    74    75    1
    39    75    76   ar
    40     7     5    1
    41    78    79    1
    42    24    23    1
    43    79    82    1
    44    40    43    1
    45    40    39    1
    46    43    44    1
    47    21    23   ar
    48    21    19   ar
    49    23    22   ar
    50     6     5    1
    51     5     2    1
    52    85    87   ar
    53    85    83   ar
    54    82    83    1
    55    87    88   ar
    56    83    84   ar
    57    44    45   ar
    58    44    46   ar
    59     1     2    1
    60    45    47   ar
    61    19    18   ar
    62    22    20   ar
    63     2     3    1
    64    88    89    1
    65    88    86   ar
    66    84    86   ar
    67    12     9    1
    68    46    49   ar
    69    46    48   ar
    70    47    48   ar
    71    49    51   ar
    72    18    20   ar
    73    18    17    1
    74    48    50   ar
    75     3     4    2
    76     9     8    1
    77     9    10    1
    78    51    52   ar
    79    50    52   ar
    80    17    14    1
    81    10    13   am
    82    10    11    2
    83    13    14    1
    84    37    36    1
    85    14    15    1
    86    36    35    1
    87    36    38    1
    88    15    16    2
    89    30    29    1
    90    35    32    1
    91    29    26    1
    92    32    31    1
    93    32    33    1
    94    31    27   am
    95    25    26    1
    96    34    33    2
    97    26    27    1
    98    27    28    2
