@<TRIPOS>MOLECULE
tmp/1l0iA00.pdb
 91 84 0 0 0
SMALL
GASTEIGER

@<TRIPOS>ATOM
      1  N         12.1710   -7.0160   10.5510 N.3    28  PHE28      -0.1227
      2  CA        12.6570   -6.9880    9.1860 C.3    28  PHE28       0.1736
      3  C         13.1710   -8.3520    8.7550 C.2    28  PHE28       0.2595
      4  O         12.8180   -8.8340    7.6610 O.2    28  PHE28      -0.2718
      5  CB        13.8320   -5.9600    9.0560 C.3    28  PHE28       0.0547
      6  CG        13.3210   -4.5480    9.2870 C.ar   28  PHE28      -0.0202
      7  CD1       13.8630   -3.7730   10.3210 C.ar   28  PHE28      -0.0042
      8  CD2       12.3200   -4.0180    8.4740 C.ar   28  PHE28      -0.0042
      9  CE1       13.3640   -2.5210   10.5900 C.ar   28  PHE28      -0.0003
     10  CE2       11.8310   -2.7490    8.7550 C.ar   28  PHE28      -0.0003
     11  CZ        12.3860   -1.9830    9.7830 C.ar   28  PHE28      -0.0000
     12  N         14.0180   -8.9480    9.5970 N.am   29  VAL29      -0.1980
     13  CA        14.6030  -10.2280    9.2270 C.3    29  VAL29       0.1595
     14  C         13.6500  -11.3870    9.4710 C.2    29  VAL29       0.2287
     15  O         13.5280  -12.3070    8.6480 O.2    29  VAL29      -0.2864
     16  CB        15.9310  -10.4260    9.9970 C.3    29  VAL29       0.0276
     17  CG1       16.5040  -11.8100    9.7360 C.3    29  VAL29       0.0022
     18  CG2       16.9280   -9.3570    9.5470 C.3    29  VAL29       0.0022
     19  N         20.8990   -9.9200    4.0320 N.3    36  SER36      -0.1217
     20  CA        21.9080   -9.0090    4.5650 C.3    36  SER36       0.1889
     21  C         22.0300   -7.7570    3.7040 C.2    36  SER36       0.2288
     22  O         22.2130   -6.6810    4.2630 O.2    36  SER36      -0.2866
     23  CB        23.2450   -9.7320    4.7030 C.3    36  SER36       0.2089
     24  OG        23.0330  -10.5970    5.8270 O.3    36  SER36      -0.2183
     25  N         19.3790   -5.1940    4.6480 N.3    39  THR39      -0.1218
     26  CA        19.4930   -4.3790    5.8580 C.3    39  THR39       0.1862
     27  C         20.2120   -3.0690    5.5390 C.2    39  THR39       0.2287
     28  O         19.7530   -1.9960    5.9850 O.2    39  THR39      -0.2866
     29  CB        20.1530   -5.1440    7.0190 C.3    39  THR39       0.1770
     30  OG1       21.4900   -5.5620    6.7010 O.3    39  THR39      -0.2211
     31  CG2       19.3210   -6.3970    7.2990 C.3    39  THR39       0.0375
     32  N         18.0020   -0.8060    3.1940 N.3    42  LEU42      -0.1231
     33  CA        16.8760   -0.2010    3.8910 C.3    42  LEU42       0.1693
     34  C         17.2990    1.0120    4.6860 C.2    42  LEU42       0.2591
     35  O         16.6690    2.0560    4.6400 O.2    42  LEU42      -0.2718
     36  CB        16.2250   -1.2490    4.8190 C.3    42  LEU42       0.0284
     37  CG        14.9660   -0.7250    5.5010 C.3    42  LEU42       0.0019
     38  CD1       14.0480    0.0080    4.5300 C.3    42  LEU42       0.0001
     39  CD2       14.2220   -1.8910    6.1370 C.3    42  LEU42       0.0001
     40  N         18.4100    0.8670    5.4230 N.am   43  VAL43      -0.1980
     41  CA        18.9500    2.0340    6.1440 C.3    43  VAL43       0.1595
     42  C         19.2190    3.1810    5.1760 C.2    43  VAL43       0.2287
     43  O         18.8510    4.3160    5.4330 O.2    43  VAL43      -0.2864
     44  CB        20.2380    1.6370    6.8950 C.3    43  VAL43       0.0276
     45  CG1       20.9510    2.8990    7.3620 C.3    43  VAL43       0.0022
     46  CG2       19.9360    0.7200    8.0850 C.3    43  VAL43       0.0022
     47  N         15.9460    4.8740    4.0150 N.3    46  LEU46      -0.1245
     48  CA        15.3410    5.7070    5.0610 C.3    46  LEU46       0.1561
     49  C         16.1570    6.9780    5.1820 C.2    46  LEU46       0.2260
     50  O         15.6240    8.0740    5.3670 O.2    46  LEU46      -0.2867
     51  CB        15.2750    4.9510    6.3800 C.3    46  LEU46       0.0270
     52  CG        14.2860    3.7580    6.4060 C.3    46  LEU46       0.0019
     53  CD1       14.3950    2.9620    7.6920 C.3    46  LEU46       0.0001
     54  CD2       12.8690    4.2720    6.2220 C.3    46  LEU46       0.0001
     55  N         21.5900    7.5290   10.1770 N.3    54  ILE54      -0.1245
     56  CA        21.3200    6.5180   11.1860 C.3    54  ILE54       0.1561
     57  C         22.6660    5.8850   11.5110 C.2    54  ILE54       0.2260
     58  O         23.2010    5.1650   10.6560 O.2    54  ILE54      -0.2867
     59  CB        20.3340    5.4510   10.6710 C.3    54  ILE54       0.0252
     60  CG1       18.9940    6.0740   10.2870 C.3    54  ILE54       0.0019
     61  CG2       20.1480    4.3260   11.6740 C.3    54  ILE54       0.0019
     62  CD1       18.0890    5.1600    9.4850 C.3    54  ILE54       0.0001
     63  N         21.3850    1.2630   13.8940 N.3    59  ALA59      -0.1231
     64  CA        20.7380    0.3690   12.9380 C.3    59  ALA59       0.1694
     65  C         20.7700   -1.0790   13.4030 C.2    59  ALA59       0.2591
     66  O         19.8060   -1.7990   13.1610 O.2    59  ALA59      -0.2718
     67  CB        21.3520    0.5430   11.5750 C.3    59  ALA59       0.0304
     68  N         21.7960   -1.5630   14.0510 N.am   60  GLU60      -0.1979
     69  CA        21.9550   -2.9490   14.4720 C.3    60  GLU60       0.1602
     70  C         20.8280   -3.3750   15.3960 C.2    60  GLU60       0.2287
     71  O         20.4520   -4.5820   15.3950 O.2    60  GLU60      -0.2864
     72  CB        23.3060   -3.0990   15.1680 C.3    60  GLU60       0.0415
     73  CG        23.5310   -4.3230   16.0520 C.3    60  GLU60       0.1163
     74  CD        25.0380   -4.5770   16.1320 C.2    60  GLU60       0.3649
     75  OE1       25.7530   -3.5500   16.0360 O.co2  60  GLU60      -0.2457
     76  OE2       25.4560   -5.7420   16.2780 O.co2  60  GLU60      -0.2457
     77  N         17.8070   -1.8330   15.2800 N.3    62  MET62      -0.1230
     78  CA        16.5630   -1.2930   14.6790 C.3    62  MET62       0.1702
     79  C         15.8730   -2.4280   13.9380 C.2    62  MET62       0.2593
     80  O         15.8460   -2.4880   12.7190 O.2    62  MET62      -0.2718
     81  CB        16.8800   -0.1180   13.7740 C.3    62  MET62       0.0401
     82  CG        15.7570    0.7580   13.2340 C.3    62  MET62       0.0596
     83  SD        16.3230    2.2230   12.3040 S.3    62  MET62      -0.1393
     84  CE        17.2150    3.1230   13.5920 C.3    62  MET62       0.0692
     85  N         15.3260   -3.3920   14.6940 N.am   63  THR63      -0.1953
     86  CA        15.0660   -4.6800   14.0780 C.3    63  THR63       0.1897
     87  C         13.5950   -4.8150   13.6910 C.2    63  THR63       0.2313
     88  O         13.2650   -5.8030   13.0000 O.2    63  THR63      -0.2863
     89  CB        15.4710   -5.8770   14.9570 C.3    63  THR63       0.1794
     90  OG1       14.7790   -5.7990   16.1910 O.3    63  THR63      -0.2208
     91  CG2       16.9680   -5.8190   15.2220 C.3    63  THR63       0.0378
@<TRIPOS>BOND
     1    32    33    1
     2    21    22    2
     3    21    20    1
     4    33    34    1
     5    33    36    1
     6    47    48    1
     7    19    20    1
     8    38    37    1
     9    20    23    1
    10    35    34    2
    11    25    26    1
    12    34    40   am
    13    23    24    1
    14    36    37    1
    15    48    49    1
    16    48    51    1
    17    42    43    2
    18    42    41    1
    19    49    50    2
    20    40    41    1
    21    37    39    1
    22    27    26    1
    23    27    28    2
    24    26    29    1
    25    41    44    1
    26    54    52    1
    27    51    52    1
    28    52    53    1
    29    30    29    1
    30    44    45    1
    31    44    46    1
    32    29    31    1
    33     4     3    2
    34     8    10   ar
    35     8     6   ar
    36    15    14    2
    37     3     2    1
    38     3    12   am
    39    10    11   ar
    40     5     2    1
    41     5     6    1
    42     2     1    1
    43    13    14    1
    44    13    12    1
    45    13    16    1
    46     6     7   ar
    47    62    60    1
    48    18    16    1
    49    17    16    1
    50    11     9   ar
    51    55    56    1
    52    60    59    1
    53     7     9   ar
    54    58    57    2
    55    59    56    1
    56    59    61    1
    57    56    57    1
    58    67    64    1
    59    83    82    1
    60    83    84    1
    61    80    79    2
    62    64    65    1
    63    64    63    1
    64    88    87    2
    65    66    65    2
    66    82    81    1
    67    65    68   am
    68    87    86    1
    69    81    78    1
    70    79    78    1
    71    79    85   am
    72    68    69    1
    73    86    85    1
    74    86    89    1
    75    69    72    1
    76    69    70    1
    77    78    77    1
    78    89    91    1
    79    89    90    1
    80    72    73    1
    81    71    70    2
    82    75    74   ar
    83    73    74    1
    84    74    76   ar
