@<TRIPOS>MOLECULE
tmp/1l0lC02.pdb
 204 200 0 0 0
SMALL
GASTEIGER

@<TRIPOS>ATOM
      1  N         62.7470   62.9060  157.3890 N.3    89  PHE89      -0.1241
      2  CA        62.9160   61.4650  157.1760 C.3    89  PHE89       0.1605
      3  C         61.7460   60.8710  156.4470 C.2    89  PHE89       0.2264
      4  O         61.9130   59.9250  155.6500 O.2    89  PHE89      -0.2867
      5  CB        63.1560   60.7070  158.4850 C.3    89  PHE89       0.0534
      6  CG        64.5910   60.7130  158.9220 C.ar   89  PHE89      -0.0203
      7  CD1       65.0770   61.7230  159.7710 C.ar   89  PHE89      -0.0042
      8  CD2       65.4770   59.7360  158.4600 C.ar   89  PHE89      -0.0042
      9  CE1       66.3870   61.7390  160.1690 C.ar   89  PHE89      -0.0003
     10  CE2       66.7990   59.7430  158.8590 C.ar   89  PHE89      -0.0003
     11  CZ        67.2660   60.7580  159.7210 C.ar   89  PHE89      -0.0000
     12  N         62.4860   58.8660  152.9340 N.3    93  TYR93      -0.1241
     13  CA        61.9460   57.5500  152.6860 C.3    93  TYR93       0.1605
     14  C         61.1010   57.4510  151.4050 C.2    93  TYR93       0.2264
     15  O         61.3770   56.6230  150.5370 O.2    93  TYR93      -0.2867
     16  CB        61.2460   57.0140  153.9510 C.3    93  TYR93       0.0534
     17  CG        62.2560   56.7670  155.0800 C.ar   93  TYR93      -0.0201
     18  CD1       63.6370   56.7490  154.8030 C.ar   93  TYR93      -0.0009
     19  CD2       61.8480   56.5790  156.4120 C.ar   93  TYR93      -0.0009
     20  CE1       64.5790   56.5320  155.7970 C.ar   93  TYR93       0.0417
     21  CE2       62.7880   56.3460  157.4170 C.ar   93  TYR93       0.0417
     22  CZ        64.1650   56.3310  157.0890 C.ar   93  TYR93       0.1957
     23  OH        65.1360   56.1310  158.0550 O.3    93  TYR93      -0.2866
     24  N         71.3590   61.7200  158.3230 N.3   122  MET122     -0.1245
     25  CA        71.2550   60.7910  159.4310 C.3   122  MET122      0.1570
     26  C         72.2990   61.1850  160.4590 C.2   122  MET122      0.2261
     27  O         72.0210   61.1660  161.6710 O.2   122  MET122     -0.2867
     28  CB        71.4430   59.3580  158.9830 C.3   122  MET122      0.0387
     29  CG        70.2500   58.7930  158.2870 C.3   122  MET122      0.0595
     30  SD        70.5980   57.1920  157.5550 S.3   122  MET122     -0.1393
     31  CE        72.4470   57.1520  157.5920 C.3   122  MET122      0.0692
     32  N         70.9010   64.3180  162.1650 N.3   125  ALA125     -0.1231
     33  CA        69.8100   64.1110  163.1240 C.3   125  ALA125      0.1694
     34  C         70.2880   63.4640  164.4090 C.2   125  ALA125      0.2592
     35  O         69.8510   63.8390  165.4960 O.2   125  ALA125     -0.2718
     36  CB        68.7200   63.3240  162.5140 C.3   125  ALA125      0.0304
     37  N         71.1710   62.4740  164.2820 N.am  126  PHE126     -0.1976
     38  CA        71.8140   61.8770  165.4370 C.3   126  PHE126      0.1639
     39  C         72.4070   62.9850  166.3320 C.2   126  PHE126      0.2290
     40  O         71.9680   63.1550  167.4440 O.2   126  PHE126     -0.2864
     41  CB        72.9120   60.9260  165.0060 C.3   126  PHE126      0.0560
     42  CG        73.8290   60.5090  166.1370 C.ar  126  PHE126     -0.0200
     43  CD1       73.3000   59.9410  167.3190 C.ar  126  PHE126     -0.0042
     44  CD2       75.2200   60.6870  166.0290 C.ar  126  PHE126     -0.0042
     45  CE1       74.1440   59.5620  168.3710 C.ar  126  PHE126     -0.0003
     46  CE2       76.0610   60.3040  167.0360 C.ar  126  PHE126     -0.0003
     47  CZ        75.5320   59.7380  168.2310 C.ar  126  PHE126     -0.0000
     48  N         69.7000   65.0910  168.0770 N.3   129  TYR129     -0.1227
     49  CA        68.9550   64.4600  169.1500 C.3   129  TYR129      0.1736
     50  C         69.6670   64.4200  170.5060 C.2   129  TYR129      0.2595
     51  O         69.0230   64.4230  171.5520 O.2   129  TYR129     -0.2718
     52  CB        68.5670   63.0550  168.7350 C.3   129  TYR129      0.0548
     53  CG        67.5000   62.4260  169.5900 C.ar  129  TYR129     -0.0200
     54  CD1       66.1610   62.8180  169.4660 C.ar  129  TYR129     -0.0009
     55  CD2       67.8170   61.4270  170.5100 C.ar  129  TYR129     -0.0009
     56  CE1       65.1430   62.2140  170.2500 C.ar  129  TYR129      0.0417
     57  CE2       66.8110   60.8020  171.2860 C.ar  129  TYR129      0.0417
     58  CZ        65.4770   61.2050  171.1520 C.ar  129  TYR129      0.1957
     59  OH        64.4850   60.6130  171.9160 O.3   129  TYR129     -0.2866
     60  N         70.9880   64.3600  170.4750 N.am  130  VAL130     -0.1980
     61  CA        71.7830   64.3030  171.6830 C.3   130  VAL130      0.1595
     62  C         71.7500   65.6170  172.4260 C.2   130  VAL130      0.2287
     63  O         71.7420   65.6440  173.6470 O.2   130  VAL130     -0.2864
     64  CB        73.2400   63.9660  171.3490 C.3   130  VAL130      0.0276
     65  CG1       74.0850   63.8690  172.6190 C.3   130  VAL130      0.0022
     66  CG2       73.2910   62.6800  170.5800 C.3   130  VAL130      0.0022
     67  N         67.3230   59.5430  176.8320 N.3   136  MET136     -0.1230
     68  CA        67.4980   58.8720  175.5450 C.3   136  MET136      0.1702
     69  C         68.5800   59.5370  174.7310 C.2   136  MET136      0.2593
     70  O         69.3910   58.8570  174.0960 O.2   136  MET136     -0.2718
     71  CB        66.2050   58.7760  174.7640 C.3   136  MET136      0.0401
     72  CG        65.2480   57.7880  175.3200 C.3   136  MET136      0.0596
     73  SD        65.9750   56.1280  175.5460 S.3   136  MET136     -0.1393
     74  CE        66.5760   55.8300  174.0100 C.3   136  MET136      0.0692
     75  N         68.5960   60.8680  174.7540 N.am  137  SER137     -0.1952
     76  CA        69.6360   61.6100  174.0720 C.3   137  SER137      0.1924
     77  C         71.0020   61.0040  174.5120 C.2   137  SER137      0.2314
     78  O         71.8230   60.5940  173.6690 O.2   137  SER137     -0.2863
     79  CB        69.5640   63.1160  174.4260 C.3   137  SER137      0.2116
     80  OG        68.2560   63.6600  174.2540 O.3   137  SER137     -0.2180
     81  N         71.0590   56.9140  173.7470 N.3   140  GLY140     -0.1210
     82  CA        71.0750   56.7800  172.3260 C.3   140  GLY140      0.1956
     83  C         72.4690   57.1930  171.8670 C.2   140  GLY140      0.2611
     84  O         73.1020   56.4550  171.0790 O.2   140  GLY140     -0.2717
     85  N         72.9660   58.3390  172.3810 N.am  141  ALA141     -0.1979
     86  CA        74.3000   58.7990  172.0330 C.3   141  ALA141      0.1597
     87  C         75.3280   57.7390  172.3890 C.2   141  ALA141      0.2287
     88  O         76.3130   57.5400  171.6860 O.2   141  ALA141     -0.2864
     89  CB        74.6320   60.1250  172.7270 C.3   141  ALA141      0.0319
     90  N         74.8030   54.3770  172.5990 N.3   143  VAL143     -0.1231
     91  CA        74.6800   53.1910  171.7840 C.3   143  VAL143      0.1692
     92  C         75.3450   53.3660  170.4370 C.2   143  VAL143      0.2591
     93  O         76.2970   52.6240  170.0740 O.2   143  VAL143     -0.2718
     94  CB        73.2200   52.8030  171.5510 C.3   143  VAL143      0.0266
     95  CG1       73.1560   51.6210  170.6190 C.3   143  VAL143      0.0020
     96  CG2       72.5520   52.4730  172.8520 C.3   143  VAL143      0.0020
     97  N         74.8360   54.3510  169.6990 N.am  144  ILE144     -0.1980
     98  CA        75.2990   54.6580  168.3790 C.3   144  ILE144      0.1595
     99  C         76.7840   54.9110  168.3220 C.2   144  ILE144      0.2287
    100  O         77.4760   54.3670  167.4700 O.2   144  ILE144     -0.2864
    101  CB        74.4760   55.8240  167.7910 C.3   144  ILE144      0.0276
    102  CG1       73.1280   55.2790  167.2900 C.3   144  ILE144      0.0022
    103  CG2       75.2130   56.4750  166.6030 C.3   144  ILE144      0.0022
    104  CD1       72.1190   56.3060  167.0820 C.3   144  ILE144      0.0001
    105  N         65.2550   51.2420  176.2440 N.3   266  ILE266     -0.1231
    106  CA        65.6140   52.3650  175.3760 C.3   266  ILE266      0.1692
    107  C         65.1180   52.1540  173.9510 C.2   266  ILE266      0.2592
    108  O         65.3840   51.1300  173.3150 O.2   266  ILE266     -0.2718
    109  CB        67.1400   52.6210  175.3570 C.3   266  ILE266      0.0266
    110  CG1       67.8610   51.4390  174.7580 C.3   266  ILE266      0.0019
    111  CG2       67.6500   52.9560  176.7320 C.3   266  ILE266      0.0020
    112  CD1       69.0770   51.7810  174.1800 C.3   266  ILE266      0.0001
    113  N         64.4410   53.1620  173.4380 N.am  267  LYS267     -0.1966
    114  CA        63.8110   53.0710  172.1460 C.3   267  LYS267      0.1713
    115  C         64.2320   54.1880  171.2140 C.2   267  LYS267      0.2458
    116  O         64.0320   55.3670  171.5210 O.2   267  LYS267     -0.2730
    117  CB        62.2940   53.1350  172.3640 C.3   267  LYS267      0.0311
    118  CG        61.4270   53.1420  171.1300 C.3   267  LYS267      0.0038
    119  CD        60.0160   53.5380  171.5410 C.3   267  LYS267      0.0206
    120  CE        58.9610   52.8160  170.7380 C.3   267  LYS267      0.1093
    121  NZ        57.8780   52.3550  171.6710 N.3   267  LYS267     -0.1314
    122  N         64.8270   53.8130  170.0750 N.am  268  PRO268     -0.2716
    123  CA        65.1890   54.7630  169.0030 C.3   268  PRO268      0.1536
    124  C         64.0300   55.6560  168.5750 C.2   268  PRO268      0.2598
    125  O         62.8670   55.3500  168.8570 O.2   268  PRO268     -0.2715
    126  CB        65.5650   53.8440  167.8520 C.3   268  PRO268      0.0310
    127  CG        66.0890   52.6500  168.5290 C.3   268  PRO268      0.0237
    128  CD        65.2470   52.4400  169.7560 C.3   268  PRO268      0.0939
    129  N         64.3570   56.7200  167.8460 N.am  269  GLU269     -0.1978
    130  CA        63.3900   57.7280  167.4420 C.3   269  GLU269      0.1602
    131  C         62.2080   57.3120  166.6230 C.2   269  GLU269      0.2287
    132  O         61.0940   57.8280  166.8580 O.2   269  GLU269     -0.2864
    133  CB        64.0680   58.9060  166.7580 C.3   269  GLU269      0.0415
    134  CG        63.9940   60.1970  167.5450 C.3   269  GLU269      0.1163
    135  CD        62.5650   60.5980  167.8760 C.2   269  GLU269      0.3649
    136  OE1       61.7410   60.7140  166.9460 O.co2 269  GLU269     -0.2457
    137  OE2       62.2660   60.7990  169.0640 O.co2 269  GLU269     -0.2457
    138  N         62.6530   56.5670  162.8280 N.3   271  TYR271     -0.1227
    139  CA        63.2870   56.3810  161.5480 C.3   271  TYR271      0.1736
    140  C         64.5500   55.5760  161.6040 C.2   271  TYR271      0.2595
    141  O         65.2660   55.4320  160.5790 O.2   271  TYR271     -0.2718
    142  CB        63.5970   57.7410  160.9140 C.3   271  TYR271      0.0548
    143  CG        64.1050   58.8160  161.8970 C.ar  271  TYR271     -0.0200
    144  CD1       65.4570   58.9140  162.2120 C.ar  271  TYR271     -0.0009
    145  CD2       63.2170   59.7280  162.5000 C.ar  271  TYR271     -0.0009
    146  CE1       65.9100   59.8690  163.0830 C.ar  271  TYR271      0.0417
    147  CE2       63.6620   60.6800  163.3520 C.ar  271  TYR271      0.0417
    148  CZ        65.0200   60.7550  163.6390 C.ar  271  TYR271      0.1957
    149  OH        65.4950   61.7070  164.4960 O.3   271  TYR271     -0.2866
    150  N         64.8710   55.0980  162.7920 N.am  272  PHE272     -0.1976
    151  CA        66.0310   54.2670  162.9650 C.3   272  PHE272      0.1639
    152  C         65.5720   52.8780  163.3500 C.2   272  PHE272      0.2290
    153  O         66.3570   51.9550  163.3960 O.2   272  PHE272     -0.2864
    154  CB        66.9120   54.8380  164.0440 C.3   272  PHE272      0.0560
    155  CG        68.2220   54.1230  164.1990 C.ar  272  PHE272     -0.0200
    156  CD1       68.9740   53.7730  163.0870 C.ar  272  PHE272     -0.0042
    157  CD2       68.7240   53.8230  165.4690 C.ar  272  PHE272     -0.0042
    158  CE1       70.1990   53.1310  163.2160 C.ar  272  PHE272     -0.0003
    159  CE2       69.9550   53.1840  165.6000 C.ar  272  PHE272     -0.0003
    160  CZ        70.6930   52.8400  164.4450 C.ar  272  PHE272     -0.0000
    161  N         63.9150   50.3650  161.9090 N.3   274  PHE274     -0.1227
    162  CA        64.1820   49.2420  161.0200 C.3   274  PHE274      0.1736
    163  C         65.6430   48.8450  161.0070 C.2   274  PHE274      0.2595
    164  O         65.9890   47.6380  160.9220 O.2   274  PHE274     -0.2718
    165  CB        63.7120   49.5270  159.5940 C.3   274  PHE274      0.0547
    166  CG        64.7240   50.2910  158.7590 C.ar  274  PHE274     -0.0202
    167  CD1       64.7810   51.6740  158.8170 C.ar  274  PHE274     -0.0042
    168  CD2       65.6160   49.6140  157.9170 C.ar  274  PHE274     -0.0042
    169  CE1       65.7000   52.3750  158.0680 C.ar  274  PHE274     -0.0003
    170  CE2       66.5590   50.3150  157.1680 C.ar  274  PHE274     -0.0003
    171  CZ        66.6020   51.6890  157.2410 C.ar  274  PHE274     -0.0000
    172  N         66.5040   49.8480  161.0980 N.am  275  ALA275     -0.1966
    173  CA        67.9240   49.6160  161.0790 C.3   275  ALA275      0.1728
    174  C         68.3660   49.0930  162.4360 C.2   275  ALA275      0.2616
    175  O         69.2600   48.2520  162.5200 O.2   275  ALA275     -0.2715
    176  CB        68.6660   50.8880  160.6990 C.3   275  ALA275      0.0334
    177  N         67.7190   49.5790  163.4950 N.am  276  TYR276     -0.1974
    178  CA        67.9980   49.1030  164.8430 C.3   276  TYR276      0.1639
    179  C         67.6740   47.6160  164.9360 C.2   276  TYR276      0.2290
    180  O         68.4480   46.8580  165.5050 O.2   276  TYR276     -0.2864
    181  CB        67.1620   49.8710  165.8570 C.3   276  TYR276      0.0560
    182  CG        67.5790   49.6870  167.2860 C.ar  276  TYR276     -0.0198
    183  CD1       68.9030   49.8900  167.6780 C.ar  276  TYR276     -0.0009
    184  CD2       66.6410   49.3250  168.2710 C.ar  276  TYR276     -0.0009
    185  CE1       69.2840   49.7290  168.9920 C.ar  276  TYR276      0.0417
    186  CE2       67.0140   49.1730  169.5730 C.ar  276  TYR276      0.0417
    187  CZ        68.3390   49.3810  169.9360 C.ar  276  TYR276      0.1957
    188  OH        68.7230   49.2250  171.2560 O.3   276  TYR276     -0.2866
    189  N         74.2140   46.4160  160.0470 N.3   292  LEU292     -0.1245
    190  CA        73.6220   47.7550  160.1520 C.3   292  LEU292      0.1561
    191  C         74.0840   48.6670  159.0310 C.2   292  LEU292      0.2260
    192  O         73.2730   49.3310  158.3720 O.2   292  LEU292     -0.2867
    193  CB        73.9800   48.4080  161.4850 C.3   292  LEU292      0.0270
    194  CG        73.5370   49.8740  161.5890 C.3   292  LEU292      0.0019
    195  CD1       72.0120   50.0160  161.4150 C.3   292  LEU292      0.0001
    196  CD2       73.9960   50.5100  162.8820 C.3   292  LEU292      0.0001
    197  N         72.0090   50.1280  155.0050 N.3   296  ILE296     -0.1245
    198  CA        71.8380   51.4360  154.3860 C.3   296  ILE296      0.1561
    199  C         72.7450   51.5410  153.1440 C.2   296  ILE296      0.2260
    200  O         72.3070   51.9430  152.0640 O.2   296  ILE296     -0.2867
    201  CB        72.1660   52.5480  155.3870 C.3   296  ILE296      0.0252
    202  CG1       71.3890   52.3500  156.7000 C.3   296  ILE296      0.0019
    203  CG2       71.8680   53.8900  154.7850 C.3   296  ILE296      0.0019
    204  CD1       69.8750   52.6800  156.5840 C.3   296  ILE296      0.0001
@<TRIPOS>BOND
     1    15    14    2
     2    14    13    1
     3   200   199    2
     4    13    12    1
     5    13    16    1
     6   199   198    1
     7    16    17    1
     8   198   197    1
     9   198   201    1
    10   203   201    1
    11    18    17   ar
    12    18    20   ar
    13    17    19   ar
    14   201   202    1
    15     4     3    2
    16    20    22   ar
    17    19    21   ar
    18     3     2    1
    19   204   202    1
    20    22    21   ar
    21    22    23    1
    22   170   171   ar
    23   170   168   ar
    24     2     1    1
    25     2     5    1
    26   171   169   ar
    27    30    31    1
    28    30    29    1
    29   168   166   ar
    30   169   167   ar
    31    29    28    1
    32    24    25    1
    33   192   191    2
    34     8    10   ar
    35     8     6   ar
    36     5     6    1
    37   166   167   ar
    38   166   165    1
    39    10    11   ar
    40     6     7   ar
    41    28    25    1
    42   191   190    1
    43    25    26    1
    44   165   162    1
    45    11     9   ar
    46     7     9   ar
    47   189   190    1
    48   190   193    1
    49    26    27    2
    50   141   140    2
    51   176   173    1
    52   142   139    1
    53   142   143    1
    54   164   163    2
    55   163   162    1
    56   163   172   am
    57   162   161    1
    58   173   172    1
    59   173   174    1
    60   195   194    1
    61   193   194    1
    62   139   140    1
    63   139   138    1
    64   194   196    1
    65   140   150   am
    66   143   144   ar
    67   143   145   ar
    68    32    33    1
    69   144   146   ar
    70   174   175    2
    71   174   177   am
    72   145   147   ar
    73    36    33    1
    74   150   151    1
    75   151   152    1
    76   151   154    1
    77   146   148   ar
    78   156   158   ar
    79   156   155   ar
    80    33    34    1
    81   158   160   ar
    82   152   153    2
    83   147   148   ar
    84   177   178    1
    85   148   149    1
    86   154   155    1
    87   155   157   ar
    88    37    34   am
    89    37    38    1
    90    34    35    2
    91   160   159   ar
    92   178   179    1
    93   178   181    1
    94   179   180    2
    95    41    38    1
    96    41    42    1
    97    38    39    1
    98   157   159   ar
    99   181   182    1
   100    44    42   ar
   101    44    46   ar
   102    42    43   ar
   103    39    40    2
   104   103   101    1
   105   131   132    2
   106   131   130    1
   107   133   130    1
   108   133   134    1
   109   136   135   ar
   110    46    47   ar
   111   104   102    1
   112   182   183   ar
   113   182   184   ar
   114   102   101    1
   115    43    45   ar
   116   130   129    1
   117   100    99    2
   118   134   135    1
   119   183   185   ar
   120   101    98    1
   121   129   124   am
   122   126   127    1
   123   126   123    1
   124   135   137   ar
   125    48    49    1
   126    47    45   ar
   127   184   186   ar
   128    99    98    1
   129    98    97    1
   130   127   128    1
   131   124   125    2
   132   124   123    1
   133    52    49    1
   134    52    53    1
   135   185   187   ar
   136   123   122    1
   137    49    50    1
   138    54    53   ar
   139    54    56   ar
   140   186   187   ar
   141    53    55   ar
   142    97    92   am
   143   128   122    1
   144   187   188    1
   145    93    92    2
   146   122   115   am
   147    56    58   ar
   148    92    91    1
   149    60    50   am
   150    60    61    1
   151    50    51    2
   152    55    57   ar
   153    66    64    1
   154    95    94    1
   155   120   119    1
   156   120   121    1
   157    84    83    2
   158   118   119    1
   159   118   117    1
   160    58    57   ar
   161    58    59    1
   162   115   116    2
   163   115   114    1
   164    64    61    1
   165    64    65    1
   166    94    91    1
   167    94    96    1
   168    61    62    1
   169    88    87    2
   170    91    90    1
   171    83    82    1
   172    83    85   am
   173    86    85    1
   174    86    87    1
   175    86    89    1
   176   114   117    1
   177   114   113    1
   178    82    81    1
   179    62    63    2
   180   108   107    2
   181   113   107   am
   182    78    77    2
   183   107   106    1
   184    74    73    1
   185    76    79    1
   186    76    77    1
   187    76    75    1
   188    70    69    2
   189   112   110    1
   190    80    79    1
   191    69    75   am
   192    69    68    1
   193   110   109    1
   194    71    72    1
   195    71    68    1
   196    72    73    1
   197   109   106    1
   198   109   111    1
   199   106   105    1
   200    68    67    1
