@<TRIPOS>MOLECULE
tmp/1l0vC00.pdb
 87 84 0 0 0
SMALL
GASTEIGER

@<TRIPOS>ATOM
      1  N         33.7170   13.2150  -76.5870 N.3    42  LEU42      -0.1245
      2  CA        35.1670   13.2420  -76.6080 C.3    42  LEU42       0.1561
      3  C         35.6990   11.9090  -77.0140 C.2    42  LEU42       0.2260
      4  O         36.7320   11.8330  -77.6590 O.2    42  LEU42      -0.2867
      5  CB        35.7720   13.6200  -75.2620 C.3    42  LEU42       0.0270
      6  CG        35.5610   15.0650  -74.8170 C.3    42  LEU42       0.0019
      7  CD1       36.5580   15.3730  -73.7090 C.3    42  LEU42       0.0001
      8  CD2       35.7560   16.0240  -75.9830 C.3    42  LEU42       0.0001
      9  N         35.5240   11.6460  -80.8530 N.3    45  GLY45      -0.1210
     10  CA        36.6240   12.4030  -81.4030 C.3    45  GLY45       0.1956
     11  C         37.9430   11.6910  -81.2350 C.2    45  GLY45       0.2611
     12  O         38.7100   11.5430  -82.1820 O.2    45  GLY45      -0.2717
     13  N         38.2070   11.2380  -80.0230 N.am   46  LEU46      -0.1979
     14  CA        39.4580   10.5590  -79.7600 C.3    46  LEU46       0.1596
     15  C         39.7340    9.4370  -80.7520 C.2    46  LEU46       0.2287
     16  O         40.8190    9.3780  -81.3190 O.2    46  LEU46      -0.2864
     17  CB        39.4840   10.0020  -78.3360 C.3    46  LEU46       0.0297
     18  CG        40.7180    9.1600  -78.0120 C.3    46  LEU46       0.0022
     19  CD1       41.9790    9.9760  -78.2160 C.3    46  LEU46       0.0001
     20  CD2       40.6460    8.6810  -76.5850 C.3    46  LEU46       0.0001
     21  N         40.0650   10.5760  -84.2340 N.3    49  LEU49      -0.1245
     22  CA        41.3710   11.2080  -84.3340 C.3    49  LEU49       0.1561
     23  C         42.4100   10.1790  -84.7060 C.2    49  LEU49       0.2260
     24  O         43.4180   10.5140  -85.3230 O.2    49  LEU49      -0.2867
     25  CB        41.7660   11.8540  -83.0090 C.3    49  LEU49       0.0270
     26  CG        43.0140   12.7360  -82.9920 C.3    49  LEU49       0.0019
     27  CD1       42.8510   13.9710  -83.8970 C.3    49  LEU49       0.0001
     28  CD2       43.2490   13.1530  -81.5590 C.3    49  LEU49       0.0001
     29  N         38.4950   11.9100  -88.7980 N.3    56  TRP56      -0.1241
     30  CA        38.4250   13.1340  -88.0190 C.3    56  TRP56       0.1605
     31  C         37.5460   14.1900  -88.6810 C.2    56  TRP56       0.2264
     32  O         36.8410   14.9220  -87.9920 O.2    56  TRP56      -0.2867
     33  CB        39.8150   13.7220  -87.7980 C.3    56  TRP56       0.0550
     34  CG        39.7490   15.0870  -87.1880 C.ar   56  TRP56       0.0003
     35  CD1       39.7090   16.2940  -87.8440 C.ar   56  TRP56       0.0946
     36  CD2       39.6370   15.3850  -85.8020 C.ar   56  TRP56       0.0152
     37  NE1       39.5740   17.3190  -86.9380 N.ar   56  TRP56      -0.2442
     38  CE2       39.5270   16.7840  -85.6780 C.ar   56  TRP56       0.0810
     39  CE3       39.6170   14.5990  -84.6500 C.ar   56  TRP56       0.0012
     40  CZ2       39.4000   17.4130  -84.4440 C.ar   56  TRP56       0.0191
     41  CZ3       39.4930   15.2170  -83.4320 C.ar   56  TRP56       0.0001
     42  CH2       39.3870   16.6140  -83.3320 C.ar   56  TRP56       0.0015
     43  N         34.0970   13.4790  -88.0930 N.3    59  PHE59      -0.1241
     44  CA        33.7360   13.8630  -86.7330 C.3    59  PHE59       0.1605
     45  C         33.3580   15.3550  -86.7590 C.2    59  PHE59       0.2264
     46  O         32.2310   15.7520  -86.4220 O.2    59  PHE59      -0.2867
     47  CB        34.9460   13.6220  -85.8130 C.3    59  PHE59       0.0534
     48  CG        34.7910   14.1980  -84.4430 C.ar   59  PHE59      -0.0203
     49  CD1       35.6080   15.2370  -84.0160 C.ar   59  PHE59      -0.0042
     50  CD2       33.7930   13.7310  -83.5920 C.ar   59  PHE59      -0.0042
     51  CE1       35.4270   15.8080  -82.7610 C.ar   59  PHE59      -0.0003
     52  CE2       33.6060   14.2940  -82.3390 C.ar   59  PHE59      -0.0003
     53  CZ        34.4210   15.3360  -81.9210 C.ar   59  PHE59      -0.0000
     54  N         44.2270   27.8890  -71.0250 N.3   123  ILE123     -0.1245
     55  CA        43.8350   26.8730  -72.0000 C.3   123  ILE123      0.1561
     56  C         43.5400   27.5020  -73.3670 C.2   123  ILE123      0.2260
     57  O         44.1040   27.0800  -74.3730 O.2   123  ILE123     -0.2867
     58  CB        42.6220   26.0270  -71.4780 C.3   123  ILE123      0.0252
     59  CG1       43.0990   25.0900  -70.3680 C.3   123  ILE123      0.0019
     60  CG2       42.0260   25.1550  -72.5840 C.3   123  ILE123      0.0019
     61  CD1       41.9610   24.3490  -69.6810 C.3   123  ILE123      0.0001
     62  N         46.9450   28.5550  -74.9580 N.3   126  VAL126     -0.1231
     63  CA        47.6680   27.3770  -75.4220 C.3   126  VAL126      0.1692
     64  C         47.0770   26.7520  -76.6910 C.2   126  VAL126      0.2591
     65  O         47.8010   26.4630  -77.6420 O.2   126  VAL126     -0.2718
     66  CB        47.7040   26.3210  -74.2970 C.3   126  VAL126      0.0266
     67  CG1       47.8460   24.9200  -74.8600 C.3   126  VAL126      0.0020
     68  CG2       48.8480   26.6350  -73.3700 C.3   126  VAL126      0.0020
     69  N         45.7610   26.5590  -76.7040 N.am  127  ALA127     -0.1980
     70  CA        45.0960   25.9360  -77.8410 C.3   127  ALA127      0.1597
     71  C         44.9050   26.7750  -79.0670 C.2   127  ALA127      0.2287
     72  O         44.5690   26.2260  -80.1040 O.2   127  ALA127     -0.2864
     73  CB        43.7600   25.4110  -77.4340 C.3   127  ALA127      0.0319
     74  N         49.1710   29.3430  -80.5630 N.3   130  TRP130     -0.1241
     75  CA        50.2430   28.5900  -81.1860 C.3   130  TRP130      0.1605
     76  C         49.6450   27.6430  -82.2190 C.2   130  TRP130      0.2264
     77  O         49.6150   26.4260  -81.9550 O.2   130  TRP130     -0.2867
     78  CB        50.9900   27.8150  -80.1190 C.3   130  TRP130      0.0550
     79  CG        51.2430   28.6610  -78.9450 C.ar  130  TRP130      0.0003
     80  CD1       50.3150   29.1410  -78.0590 C.ar  130  TRP130      0.0946
     81  CD2       52.5030   29.1630  -78.5220 C.ar  130  TRP130      0.0152
     82  NE1       50.9270   29.9140  -77.1060 N.ar  130  TRP130     -0.2442
     83  CE2       52.2740   29.9450  -77.3640 C.ar  130  TRP130      0.0810
     84  CE3       53.8110   29.0310  -79.0030 C.ar  130  TRP130      0.0012
     85  CZ2       53.3120   30.5920  -76.6800 C.ar  130  TRP130      0.0191
     86  CZ3       54.8440   29.6720  -78.3250 C.ar  130  TRP130      0.0001
     87  CH2       54.5890   30.4430  -77.1740 C.ar  130  TRP130      0.0015
@<TRIPOS>BOND
     1    29    30    1
     2    31    30    1
     3    31    32    2
     4    43    44    1
     5    30    33    1
     6    35    34   ar
     7    35    37   ar
     8    33    34    1
     9    34    36   ar
    10    37    38   ar
    11    45    44    1
    12    45    46    2
    13    44    47    1
    14    47    48    1
    15    36    38   ar
    16    36    39   ar
    17    38    40   ar
    18    24    23    2
    19    23    22    1
    20    39    41   ar
    21    40    42   ar
    22    48    49   ar
    23    48    50   ar
    24    22    21    1
    25    22    25    1
    26    49    51   ar
    27    27    26    1
    28    50    52   ar
    29    41    42   ar
    30    25    26    1
    31    26    28    1
    32    51    53   ar
    33    52    53   ar
    34    76    77    2
    35    76    75    1
    36    12    11    2
    37    10    11    1
    38    10     9    1
    39    16    15    2
    40    11    13   am
    41    75    74    1
    42    75    78    1
    43    15    14    1
    44    78    79    1
    45    72    71    2
    46    13    14    1
    47    14    17    1
    48    71    70    1
    49    84    81   ar
    50    84    86   ar
    51    79    81   ar
    52    79    80   ar
    53    81    83   ar
    54    17    18    1
    55    86    87   ar
    56    19    18    1
    57    80    82   ar
    58    18    20    1
    59    70    73    1
    60    70    69    1
    61     4     3    2
    62    65    64    2
    63    83    82   ar
    64    83    85   ar
    65    87    85   ar
    66     3     2    1
    67    69    64   am
    68    64    63    1
    69     2     1    1
    70     2     5    1
    71     8     6    1
    72    63    62    1
    73    63    66    1
    74     5     6    1
    75    67    66    1
    76     6     7    1
    77    57    56    2
    78    66    68    1
    79    56    55    1
    80    60    58    1
    81    55    58    1
    82    55    54    1
    83    58    59    1
    84    59    61    1
