@<TRIPOS>MOLECULE
tmp/1l0vD00.pdb
 116 109 0 0 0
SMALL
GASTEIGER

@<TRIPOS>ATOM
      1  N         36.8190   23.6560  -72.4380 N.3    32  MET32      -0.1245
      2  CA        36.8910   22.5230  -73.3580 C.3    32  MET32       0.1570
      3  C         35.6530   22.3700  -74.2120 C.2    32  MET32       0.2261
      4  O         35.7490   22.0550  -75.3880 O.2    32  MET32      -0.2867
      5  CB        37.1140   21.2170  -72.6120 C.3    32  MET32       0.0387
      6  CG        38.4600   21.1040  -71.9210 C.3    32  MET32       0.0595
      7  SD        39.9010   21.0900  -73.0120 S.3    32  MET32      -0.1393
      8  CE        39.2940   20.1150  -74.2880 C.3    32  MET32       0.0692
      9  N         36.0520   25.1230  -76.9600 N.3    35  LEU35      -0.1231
     10  CA        36.9740   24.7170  -78.0060 C.3    35  LEU35       0.1693
     11  C         36.4560   23.5990  -78.9090 C.2    35  LEU35       0.2591
     12  O         36.3790   23.7530  -80.1350 O.2    35  LEU35      -0.2718
     13  CB        38.2780   24.2390  -77.3850 C.3    35  LEU35       0.0284
     14  CG        39.2760   25.2440  -76.8230 C.3    35  LEU35       0.0019
     15  CD1       40.2190   24.5170  -75.8580 C.3    35  LEU35       0.0001
     16  CD2       40.0270   25.9190  -77.9820 C.3    35  LEU35       0.0001
     17  N         36.1220   22.4600  -78.3080 N.am   36  VAL36      -0.1980
     18  CA        35.6430   21.3030  -79.0670 C.3    36  VAL36       0.1595
     19  C         34.2090   21.3760  -79.5570 C.2    36  VAL36       0.2287
     20  O         33.9370   21.0040  -80.6850 O.2    36  VAL36      -0.2864
     21  CB        35.7690   19.9860  -78.2710 C.3    36  VAL36       0.0276
     22  CG1       35.3160   18.8040  -79.1380 C.3    36  VAL36       0.0022
     23  CG2       37.1870   19.7810  -77.8350 C.3    36  VAL36       0.0022
     24  N         35.8480   24.8320  -82.6680 N.3    40  LEU40      -0.1245
     25  CA        36.3220   23.8970  -83.6790 C.3    40  LEU40       0.1561
     26  C         35.4230   23.7810  -84.9070 C.2    40  LEU40       0.2260
     27  O         35.8170   24.1540  -86.0050 O.2    40  LEU40      -0.2867
     28  CB        36.5340   22.5290  -83.0540 C.3    40  LEU40       0.0270
     29  CG        36.7830   21.3970  -84.0400 C.3    40  LEU40       0.0019
     30  CD1       37.9740   21.6960  -84.9470 C.3    40  LEU40       0.0001
     31  CD2       37.0260   20.1470  -83.2230 C.3    40  LEU40       0.0001
     32  N         45.2660   25.8990  -85.7610 N.3    49  ALA49      -0.1231
     33  CA        45.3760   25.5240  -84.3590 C.3    49  ALA49       0.1694
     34  C         44.5820   24.2460  -84.0620 C.2    49  ALA49       0.2591
     35  O         45.0580   23.3860  -83.3340 O.2    49  ALA49      -0.2718
     36  CB        44.8950   26.6750  -83.4720 C.3    49  ALA49       0.0304
     37  N         43.3840   24.1250  -84.6330 N.am   50  LEU50      -0.1980
     38  CA        42.5400   22.9480  -84.4070 C.3    50  LEU50       0.1596
     39  C         42.3630   22.0770  -85.6490 C.2    50  LEU50       0.2287
     40  O         41.2610   21.6090  -85.9650 O.2    50  LEU50      -0.2864
     41  CB        41.1510   23.3560  -83.9100 C.3    50  LEU50       0.0297
     42  CG        41.0360   24.3840  -82.7900 C.3    50  LEU50       0.0022
     43  CD1       39.5980   24.3480  -82.2670 C.3    50  LEU50       0.0001
     44  CD2       42.0530   24.0910  -81.6840 C.3    50  LEU50       0.0001
     45  N         47.4180   19.1930  -85.9850 N.3    54  ARG54      -0.1231
     46  CA        47.7840   19.7610  -84.7060 C.3    54  ARG54       0.1694
     47  C         47.1780   19.0460  -83.5080 C.2    54  ARG54       0.2591
     48  O         47.8580   18.8290  -82.5010 O.2    54  ARG54      -0.2718
     49  CB        47.4430   21.2470  -84.6730 C.3    54  ARG54       0.0321
     50  CG        48.1910   21.9500  -83.5790 C.3    54  ARG54       0.0489
     51  CD        48.1660   23.4530  -83.7070 C.3    54  ARG54       0.2205
     52  NE        48.9200   24.0170  -82.6000 N.pl3  54  ARG54      -0.0865
     53  CZ        48.5750   23.8560  -81.3280 C.cat  54  ARG54       0.5346
     54  NH1       47.4900   23.1600  -81.0390 N.pl3  54  ARG54       0.1354
     55  NH2       49.3250   24.3560  -80.3530 N.pl3  54  ARG54       0.1354
     56  N         45.9070   18.6760  -83.6130 N.am   55  VAL55      -0.1980
     57  CA        45.2410   17.9790  -82.5200 C.3    55  VAL55       0.1595
     58  C         45.9550   16.6720  -82.2720 C.2    55  VAL55       0.2287
     59  O         46.3210   16.3500  -81.1370 O.2    55  VAL55      -0.2864
     60  CB        43.7870   17.6480  -82.8660 C.3    55  VAL55       0.0276
     61  CG1       43.1340   16.9000  -81.7260 C.3    55  VAL55       0.0022
     62  CG2       43.0340   18.9060  -83.1320 C.3    55  VAL55       0.0022
     63  N         48.8530   15.8160  -83.0410 N.3    57  ALA57      -0.1231
     64  CA        50.1510   16.0610  -82.4380 C.3    57  ALA57       0.1694
     65  C         50.0530   16.1450  -80.9100 C.2    57  ALA57       0.2592
     66  O         50.9070   15.6230  -80.1790 O.2    57  ALA57      -0.2718
     67  CB        50.7280   17.3470  -82.9940 C.3    57  ALA57       0.0304
     68  N         48.9970   16.8050  -80.4450 N.am   58  PHE58      -0.1962
     69  CA        48.7550   17.0020  -79.0230 C.3    58  PHE58       0.1771
     70  C         48.3860   15.6930  -78.4080 C.2    58  PHE58       0.2619
     71  O         49.0520   15.1910  -77.5060 O.2    58  PHE58      -0.2715
     72  CB        47.5940   17.9700  -78.8180 C.3    58  PHE58       0.0574
     73  CG        47.1800   18.1340  -77.3840 C.ar   58  PHE58      -0.0200
     74  CD1       48.0810   18.6060  -76.4250 C.ar   58  PHE58      -0.0042
     75  CD2       45.8830   17.8320  -76.9920 C.ar   58  PHE58      -0.0042
     76  CE1       47.6880   18.7750  -75.0940 C.ar   58  PHE58      -0.0003
     77  CE2       45.4850   17.9940  -75.6780 C.ar   58  PHE58      -0.0003
     78  CZ        46.3810   18.4650  -74.7230 C.ar   58  PHE58      -0.0000
     79  N         47.3000   15.1430  -78.9150 N.am   59  ALA59      -0.1977
     80  CA        46.8170   13.8890  -78.3990 C.3    59  ALA59       0.1597
     81  C         47.9540   12.9050  -78.1910 C.2    59  ALA59       0.2287
     82  O         48.0380   12.2580  -77.1540 O.2    59  ALA59      -0.2864
     83  CB        45.7860   13.3140  -79.3410 C.3    59  ALA59       0.0319
     84  N         50.9700   13.4250  -77.5200 N.3    61  SER61      -0.1217
     85  CA        51.9980   13.8060  -76.5500 C.3    61  SER61       0.1889
     86  C         51.7100   13.1500  -75.2050 C.2    61  SER61       0.2288
     87  O         50.6150   12.6330  -74.9860 O.2    61  SER61      -0.2866
     88  CB        52.0600   15.3250  -76.3970 C.3    61  SER61       0.2089
     89  OG        50.8010   15.8560  -76.0410 O.3    61  SER61      -0.2183
     90  N         51.6310   14.5760  -72.0880 N.3    63  ILE63      -0.1245
     91  CA        50.7150   15.4120  -71.3680 C.3    63  ILE63       0.1561
     92  C         49.3480   15.3490  -72.0520 C.2    63  ILE63       0.2260
     93  O         48.3060   15.2870  -71.3980 O.2    63  ILE63      -0.2867
     94  CB        51.2600   16.8340  -71.3200 C.3    63  ILE63       0.0252
     95  CG1       50.4160   17.6750  -70.3740 C.3    63  ILE63       0.0019
     96  CG2       51.3040   17.4150  -72.7140 C.3    63  ILE63       0.0019
     97  CD1       50.9670   19.0620  -70.1420 C.3    63  ILE63       0.0001
     98  N         45.9170   14.3430  -70.0670 N.3    67  PHE67      -0.1227
     99  CA        44.8250   15.2960  -70.0870 C.3    67  PHE67       0.1736
    100  C         43.5800   14.7090  -70.7540 C.2    67  PHE67       0.2595
    101  O         42.4700   14.8080  -70.2450 O.2    67  PHE67      -0.2718
    102  CB        45.2360   16.5550  -70.8300 C.3    67  PHE67       0.0547
    103  CG        44.2050   17.6470  -70.7740 C.ar   67  PHE67      -0.0202
    104  CD1       44.2560   18.6140  -69.7790 C.ar   67  PHE67      -0.0042
    105  CD2       43.1830   17.7140  -71.7150 C.ar   67  PHE67      -0.0042
    106  CE1       43.3090   19.6400  -69.7210 C.ar   67  PHE67      -0.0003
    107  CE2       42.2270   18.7410  -71.6620 C.ar   67  PHE67      -0.0003
    108  CZ        42.2960   19.7020  -70.6640 C.ar   67  PHE67      -0.0000
    109  N         43.7630   14.1290  -71.9180 N.am   68  LEU68      -0.1980
    110  CA        42.6670   13.5160  -72.6190 C.3    68  LEU68       0.1596
    111  C         41.8900   12.5290  -71.7520 C.2    68  LEU68       0.2287
    112  O         40.6530   12.5510  -71.6810 O.2    68  LEU68      -0.2864
    113  CB        43.2420   12.7770  -73.7950 C.3    68  LEU68       0.0297
    114  CG        43.1690   13.6240  -75.0330 C.3    68  LEU68       0.0022
    115  CD1       41.7390   13.6520  -75.4150 C.3    68  LEU68       0.0001
    116  CD2       43.7040   15.0130  -74.7840 C.3    68  LEU68       0.0001
@<TRIPOS>BOND
     1    27    26    2
     2    45    46    1
     3    40    39    2
     4    32    33    1
     5    39    38    1
     6    30    29    1
     7    26    25    1
     8    46    49    1
     9    46    47    1
    10    49    50    1
    11    37    38    1
    12    37    34   am
    13    38    41    1
    14    33    34    1
    15    33    36    1
    16    34    35    2
    17    29    31    1
    18    29    28    1
    19    41    42    1
    20    51    50    1
    21    51    52    1
    22    25    28    1
    23    25    24    1
    24    56    47   am
    25    56    57    1
    26    47    48    2
    27    62    60    1
    28    63    64    1
    29    67    64    1
    30    60    57    1
    31    60    61    1
    32    42    43    1
    33    42    44    1
    34    52    53    2
    35    57    58    1
    36    64    65    1
    37    58    59    2
    38    53    54    1
    39    53    55    1
    40    65    68   am
    41    65    66    2
    42    20    19    2
    43    68    69    1
    44    12    11    2
    45    19    18    1
    46    83    80    1
    47    22    21    1
    48    18    17    1
    49    18    21    1
    50    69    72    1
    51    69    70    1
    52    79    70   am
    53    79    80    1
    54    11    17   am
    55    11    10    1
    56    72    73    1
    57    70    71    2
    58    80    81    1
    59    21    23    1
    60    81    82    2
    61    10    13    1
    62    10     9    1
    63    16    14    1
    64    84    85    1
    65    13    14    1
    66    73    75   ar
    67    73    74   ar
    68    75    77   ar
    69    14    15    1
    70    85    88    1
    71    85    86    1
    72    74    76   ar
    73    88    89    1
    74    77    78   ar
    75   115   114    1
    76     4     3    2
    77    86    87    2
    78    76    78   ar
    79   114   116    1
    80   114   113    1
    81     8     7    1
    82     3     2    1
    83   113   110    1
    84     2     5    1
    85     2     1    1
    86     7     6    1
    87    96    94    1
    88   110   109    1
    89   110   111    1
    90     5     6    1
    91    90    91    1
    92    92    93    2
    93    92    91    1
    94   109   100   am
    95   111   112    2
    96   105   107   ar
    97   105   103   ar
    98   107   108   ar
    99    91    94    1
   100    94    95    1
   101   102   103    1
   102   102    99    1
   103   103   104   ar
   104   100   101    2
   105   100    99    1
   106   108   106   ar
   107    95    97    1
   108    99    98    1
   109   104   106   ar
