@<TRIPOS>MOLECULE
tmp/1l0vD01.pdb
 86 85 0 0 0
SMALL
GASTEIGER

@<TRIPOS>ATOM
      1  N         29.9860    3.9500  -50.0760 N.3    11  GLU11      -0.1245
      2  CA        29.8450    5.2240  -50.7860 C.3    11  GLU11       0.1567
      3  C         31.1210    6.0820  -50.8280 C.2    11  GLU11       0.2260
      4  O         31.3640    6.7720  -51.8150 O.2    11  GLU11      -0.2867
      5  CB        28.7170    6.0370  -50.1710 C.3    11  GLU11       0.0388
      6  CG        27.3660    5.6460  -50.6750 C.3    11  GLU11       0.1160
      7  CD        27.2220    5.9610  -52.1300 C.2    11  GLU11       0.3649
      8  OE1       27.1830    5.0040  -52.9370 O.co2  11  GLU11      -0.2457
      9  OE2       27.1630    7.1680  -52.4600 O.co2  11  GLU11      -0.2457
     10  N         31.9020    8.4660  -53.8980 N.3    15  TRP15      -0.1227
     11  CA        31.8290    9.8780  -53.5760 C.3    15  TRP15       0.1737
     12  C         33.1840   10.4590  -53.9080 C.2    15  TRP15       0.2596
     13  O         33.2960   11.5020  -54.5450 O.2    15  TRP15      -0.2718
     14  CB        31.5680   10.0730  -52.0900 C.3    15  TRP15       0.0564
     15  CG        31.3150   11.4730  -51.7260 C.ar   15  TRP15       0.0003
     16  CD1       30.2800   12.2530  -52.1530 C.ar   15  TRP15       0.0946
     17  CD2       32.0870   12.2740  -50.8330 C.ar   15  TRP15       0.0152
     18  NE1       30.3580   13.4980  -51.5720 N.ar   15  TRP15      -0.2442
     19  CE2       31.4590   13.5400  -50.7560 C.ar   15  TRP15       0.0810
     20  CE3       33.2480   12.0520  -50.0860 C.ar   15  TRP15       0.0012
     21  CZ2       31.9540   14.5770  -49.9610 C.ar   15  TRP15       0.0191
     22  CZ3       33.7450   13.0870  -49.2910 C.ar   15  TRP15       0.0001
     23  CH2       33.0950   14.3310  -49.2380 C.ar   15  TRP15       0.0015
     24  N         34.2180    9.7540  -53.4710 N.am   16  GLY16      -0.1957
     25  CA        35.5670   10.2170  -53.6990 C.3    16  GLY16       0.1869
     26  C         35.8010   10.6210  -55.1320 C.2    16  GLY16       0.2309
     27  O         36.1140   11.7760  -55.4320 O.2    16  GLY16      -0.2863
     28  N         33.6760   10.9400  -57.6930 N.3    18  PHE18      -0.1227
     29  CA        32.7020   11.9740  -58.0400 C.3    18  PHE18       0.1736
     30  C         33.1670   13.3450  -57.5680 C.2    18  PHE18       0.2596
     31  O         32.8960   14.3610  -58.2080 O.2    18  PHE18      -0.2718
     32  CB        31.3580   11.5890  -57.4060 C.3    18  PHE18       0.0547
     33  CG        30.4860   12.7490  -57.0330 C.ar   18  PHE18      -0.0202
     34  CD1       29.7360   13.4170  -57.9980 C.ar   18  PHE18      -0.0042
     35  CD2       30.3690   13.1390  -55.6920 C.ar   18  PHE18      -0.0042
     36  CE1       28.8800   14.4500  -57.6340 C.ar   18  PHE18      -0.0003
     37  CE2       29.5130   14.1750  -55.3210 C.ar   18  PHE18      -0.0003
     38  CZ        28.7630   14.8330  -56.2940 C.ar   18  PHE18      -0.0000
     39  N         33.8780   13.3640  -56.4490 N.am   19  GLY19      -0.1942
     40  CA        34.3650   14.6200  -55.9310 C.3    19  GLY19       0.2014
     41  C         35.4260   15.2000  -56.8400 C.2    19  GLY19       0.2638
     42  O         35.2870   16.3100  -57.3490 O.2    19  GLY19      -0.2714
     43  N         36.4970   14.4400  -57.0480 N.am   20  ALA20      -0.1977
     44  CA        37.5890   14.8880  -57.9010 C.3    20  ALA20       0.1597
     45  C         37.0240   15.1580  -59.2850 C.2    20  ALA20       0.2287
     46  O         37.4290   16.0890  -59.9760 O.2    20  ALA20      -0.2864
     47  CB        38.6710   13.8190  -57.9680 C.3    20  ALA20       0.0319
     48  N         35.1070   18.4330  -59.4570 N.3    23  MET23      -0.1245
     49  CA        36.0220   19.5700  -59.3570 C.3    23  MET23       0.1570
     50  C         36.7500   19.7520  -60.6730 C.2    23  MET23       0.2261
     51  O         37.0420   20.8730  -61.0890 O.2    23  MET23      -0.2867
     52  CB        37.0430   19.3450  -58.2270 C.3    23  MET23       0.0387
     53  CG        37.9740   20.5350  -57.9510 C.3    23  MET23       0.0595
     54  SD        37.0710   22.0030  -57.4260 S.3    23  MET23      -0.1393
     55  CE        36.8630   21.6700  -55.6950 C.3    23  MET23       0.0692
     56  N         27.6120    8.9060  -61.2990 N.3    81  HIS81      -0.1226
     57  CA        27.3540    8.8550  -59.8640 C.3    81  HIS81       0.1752
     58  C         26.0390    9.5980  -59.6790 C.2    81  HIS81       0.2595
     59  O         25.0950    9.0960  -59.0740 O.2    81  HIS81      -0.2718
     60  CB        28.4520    9.6020  -59.1070 C.3    81  HIS81       0.0759
     61  CG        28.2750    9.6080  -57.6200 C.ar   81  HIS81       0.0818
     62  ND1       28.7100    8.5810  -56.8100 N.ar   81  HIS81      -0.2268
     63  CD2       27.7220   10.5260  -56.7890 C.ar   81  HIS81       0.1154
     64  CE1       28.4400    8.8600  -55.5530 C.ar   81  HIS81       0.1986
     65  NE2       27.8380   10.0400  -55.5060 N.ar   81  HIS81      -0.2212
     66  N         25.9830   10.8030  -60.2250 N.am   82  ARG82      -0.1980
     67  CA        24.7870   11.6020  -60.1060 C.3    82  ARG82       0.1597
     68  C         23.5310   10.9940  -60.7120 C.2    82  ARG82       0.2287
     69  O         22.4660   11.1160  -60.1190 O.2    82  ARG82      -0.2864
     70  CB        25.0190   12.9950  -60.6780 C.3    82  ARG82       0.0334
     71  CG        25.4840   13.9950  -59.6470 C.3    82  ARG82       0.0492
     72  CD        25.8250   15.3110  -60.3040 C.3    82  ARG82       0.2205
     73  NE        25.7150   16.4380  -59.3800 N.pl3  82  ARG82      -0.0865
     74  CZ        26.1750   17.6550  -59.6460 C.cat  82  ARG82       0.5346
     75  NH1       26.7750   17.8850  -60.8050 N.pl3  82  ARG82       0.1354
     76  NH2       26.0390   18.6390  -58.7670 N.pl3  82  ARG82       0.1354
     77  N         22.0160    8.2240  -58.3940 N.3    85  HIS85      -0.1241
     78  CA        21.1400    8.7170  -57.3420 C.3    85  HIS85       0.1621
     79  C         19.8510    9.3440  -57.9130 C.2    85  HIS85       0.2264
     80  O         18.7560    9.1700  -57.3650 O.2    85  HIS85      -0.2867
     81  CB        21.8950    9.7090  -56.4630 C.3    85  HIS85       0.0745
     82  CG        22.9160    9.0570  -55.5820 C.ar   85  HIS85       0.0817
     83  ND1       24.1180    8.5870  -56.0540 N.ar   85  HIS85      -0.2268
     84  CD2       22.8790    8.7490  -54.2650 C.ar   85  HIS85       0.1154
     85  CE1       24.7870    8.0130  -55.0640 C.ar   85  HIS85       0.1986
     86  NE2       24.0560    8.0990  -53.9680 N.ar   85  HIS85      -0.2212
@<TRIPOS>BOND
     1    56    57    1
     2    51    50    2
     3    75    74    1
     4    68    69    2
     5    68    67    1
     6    70    67    1
     7    70    71    1
     8    50    49    1
     9    72    71    1
    10    72    73    1
    11    66    67    1
    12    66    58   am
    13    46    45    2
    14    57    58    1
    15    57    60    1
    16    58    59    2
    17    74    73    2
    18    74    76    1
    19    48    49    1
    20    49    52    1
    21    45    44    1
    22    60    61    1
    23    77    78    1
    24    52    53    1
    25    31    30    2
    26    29    28    1
    27    29    30    1
    28    29    32    1
    29    34    36   ar
    30    34    33   ar
    31    47    44    1
    32    53    54    1
    33    79    80    2
    34    79    78    1
    35    44    43    1
    36    36    38   ar
    37    61    62   ar
    38    61    63   ar
    39    30    39   am
    40    54    55    1
    41    32    33    1
    42    42    41    2
    43    78    81    1
    44    43    41   am
    45    33    35   ar
    46    41    40    1
    47    62    64   ar
    48    63    65   ar
    49    81    82    1
    50    39    40    1
    51    38    37   ar
    52    83    82   ar
    53    83    85   ar
    54    35    37   ar
    55    82    84   ar
    56    64    65   ar
    57    27    26    2
    58    26    25    1
    59    85    86   ar
    60    13    12    2
    61    84    86   ar
    62    12    11    1
    63    12    24   am
    64    10    11    1
    65    25    24    1
    66    11    14    1
    67     8     7   ar
    68     9     7   ar
    69    16    15   ar
    70    16    18   ar
    71     7     6    1
    72    14    15    1
    73     4     3    2
    74    15    17   ar
    75    18    19   ar
    76    17    19   ar
    77    17    20   ar
    78     3     2    1
    79     2     5    1
    80     2     1    1
    81    19    21   ar
    82     6     5    1
    83    20    22   ar
    84    21    23   ar
    85    22    23   ar
