@<TRIPOS>MOLECULE
tmp/1l1eA00.pdb
 217 214 0 0 0
SMALL
GASTEIGER

@<TRIPOS>ATOM
      1  N         -0.3120    5.9880   60.3780 N.3    16  GLN16      -0.1231
      2  CA        -0.4250    7.2620   59.6720 C.3    16  GLN16       0.1698
      3  C         -0.4270    8.4900   60.6000 C.2    16  GLN16       0.2593
      4  O         -1.1620    9.4540   60.3680 O.2    16  GLN16      -0.2718
      5  CB        -1.6790    7.2860   58.7780 C.3    16  GLN16       0.0381
      6  CG        -1.5980    6.3840   57.5310 C.3    16  GLN16       0.0905
      7  CD        -2.4300    6.9190   56.3610 C.2    16  GLN16       0.2608
      8  OE1       -2.0840    7.9380   55.7480 O.2    16  GLN16      -0.2717
      9  NE2       -3.5410    6.2390   56.0580 N.am   16  GLN16      -0.0878
     10  N          0.3930    8.4590   61.6500 N.am   17  THR17      -0.1939
     11  CA         0.4810    9.6000   62.5600 C.3    17  THR17       0.2028
     12  C          1.4130   10.5980   61.9050 C.2    17  THR17       0.2642
     13  O          2.5030   10.2390   61.4760 O.2    17  THR17      -0.2714
     14  CB         1.0300    9.1940   63.9380 C.3    17  THR17       0.1808
     15  OG1        0.0880    8.3360   64.5710 O.3    17  THR17      -0.2208
     16  CG2        1.2400   10.4220   64.8330 C.3    17  THR17       0.0379
     17  N          0.9740   11.8510   61.8330 N.am   18  TYR18      -0.1959
     18  CA         1.7280   12.9110   61.1680 C.3    18  TYR18       0.1771
     19  C          2.0100   14.0470   62.1390 C.2    18  TYR18       0.2620
     20  O          1.3960   15.1110   62.0610 O.2    18  TYR18      -0.2715
     21  CB         0.8940   13.4210   59.9860 C.3    18  TYR18       0.0574
     22  CG         1.5740   14.3920   59.0560 C.ar   18  TYR18      -0.0198
     23  CD1        0.8300   15.3510   58.3650 C.ar   18  TYR18      -0.0009
     24  CD2        2.9460   14.3340   58.8290 C.ar   18  TYR18      -0.0009
     25  CE1        1.4370   16.2300   57.4690 C.ar   18  TYR18       0.0417
     26  CE2        3.5650   15.2060   57.9380 C.ar   18  TYR18       0.0417
     27  CZ         2.8050   16.1530   57.2600 C.ar   18  TYR18       0.1957
     28  OH         3.4190   17.0260   56.3850 O.3    18  TYR18      -0.2866
     29  N          2.9490   13.8020   63.0420 N.am   19  SER19      -0.1950
     30  CA         3.3470   14.7520   64.0680 C.3    19  SER19       0.1924
     31  C          4.5310   14.1540   64.8290 C.2    19  SER19       0.2314
     32  O          4.7630   12.9480   64.7730 O.2    19  SER19      -0.2863
     33  CB         2.1740   15.0070   65.0230 C.3    19  SER19       0.2116
     34  OG         1.6320   13.7900   65.5280 O.3    19  SER19      -0.2180
     35  N          3.9040    8.4620   71.8330 N.3    37  LYS37      -0.1245
     36  CA         3.5050    9.8630   71.9010 C.3    37  LYS37       0.1561
     37  C          2.0010    9.9660   72.2000 C.2    37  LYS37       0.2260
     38  O          1.5680   10.7870   73.0160 O.2    37  LYS37      -0.2867
     39  CB         3.8810   10.5610   70.5870 C.3    37  LYS37       0.0271
     40  CG         3.3970   12.0050   70.4440 C.3    37  LYS37       0.0035
     41  CD         1.9800   12.0760   69.8710 C.3    37  LYS37       0.0206
     42  CE         1.8590   11.4220   68.4720 C.3    37  LYS37       0.1093
     43  NZ         2.7680   11.9900   67.4070 N.3    37  LYS37      -0.1314
     44  N        -10.9150   15.2880   69.6770 N.3    55  ASP55      -0.1225
     45  CA        -9.6070   15.3620   69.0340 C.3    55  ASP55       0.1805
     46  C         -9.6990   16.4710   68.0010 C.2    55  ASP55       0.2598
     47  O        -10.3660   16.3080   66.9810 O.2    55  ASP55      -0.2718
     48  CB        -9.2630   14.0730   68.2950 C.3    55  ASP55       0.1424
     49  CG        -7.8300   14.0700   67.7740 C.2    55  ASP55       0.3668
     50  OD1       -7.3340   15.1510   67.3820 O.co2  55  ASP55      -0.2456
     51  OD2       -7.1980   12.9920   67.7470 O.co2  55  ASP55      -0.2456
     52  N         -9.0400   17.5930   68.2620 N.am   56  ILE56      -0.1966
     53  CA        -9.0630   18.6950   67.3140 C.3    56  ILE56       0.1727
     54  C         -7.9430   18.5530   66.2950 C.2    56  ILE56       0.2617
     55  O         -6.7720   18.7360   66.6200 O.2    56  ILE56      -0.2715
     56  CB        -8.9700   20.0500   68.0410 C.3    56  ILE56       0.0290
     57  CG1      -10.1920   20.2120   68.9470 C.3    56  ILE56       0.0022
     58  CG2       -8.9020   21.1830   67.0120 C.3    56  ILE56       0.0023
     59  CD1      -10.3470   21.5970   69.5860 C.3    56  ILE56       0.0001
     60  N         -8.3220   18.2320   65.0570 N.am   57  GLY57      -0.1940
     61  CA        -7.3570   18.0160   63.9910 C.3    57  GLY57       0.2014
     62  C         -6.8770   16.5840   64.1210 C.2    57  GLY57       0.2639
     63  O         -5.6800   16.3180   64.2890 O.2    57  GLY57      -0.2714
     64  N         -7.8240   15.6540   64.0220 N.am   58  CYS58      -0.1953
     65  CA        -7.5530   14.2300   64.2150 C.3    58  CYS58       0.1843
     66  C         -6.7370   13.4440   63.1920 C.2    58  CYS58       0.2626
     67  O         -6.4710   12.2670   63.4110 O.2    58  CYS58      -0.2714
     68  CB        -8.8790   13.5000   64.4460 C.3    58  CYS58       0.0997
     69  SG        -9.9850   13.5540   63.0250 S.3    58  CYS58      -0.0797
     70  N         -6.3320   14.0710   62.0910 N.am   59  GLY59      -0.1940
     71  CA        -5.5790   13.3410   61.0900 C.3    59  GLY59       0.2014
     72  C         -6.2870   12.0600   60.6660 C.2    59  GLY59       0.2638
     73  O         -7.5040   12.0450   60.4390 O.2    59  GLY59      -0.2714
     74  N         -5.5300   10.9710   60.5670 N.am   60  TRP60      -0.1973
     75  CA        -6.1030    9.7000   60.1540 C.3    60  TRP60       0.1640
     76  C         -6.6600    8.8060   61.2580 C.2    60  TRP60       0.2290
     77  O         -6.8440    7.6050   61.0580 O.2    60  TRP60      -0.2864
     78  CB        -5.0940    8.9420   59.3020 C.3    60  TRP60       0.0576
     79  CG        -4.9680    9.5430   57.9330 C.ar   60  TRP60       0.0006
     80  CD1       -5.7760    9.3070   56.8560 C.ar   60  TRP60       0.0946
     81  CD2       -3.9830   10.4820   57.4970 C.ar   60  TRP60       0.0152
     82  NE1       -5.3490   10.0360   55.7750 N.ar   60  TRP60      -0.2442
     83  CE2       -4.2500   10.7680   56.1370 C.ar   60  TRP60       0.0810
     84  CE3       -2.8980   11.1130   58.1200 C.ar   60  TRP60       0.0012
     85  CZ2       -3.4650   11.6620   55.3830 C.ar   60  TRP60       0.0191
     86  CZ3       -2.1170   12.0020   57.3720 C.ar   60  TRP60       0.0001
     87  CH2       -2.4070   12.2650   56.0170 C.ar   60  TRP60       0.0015
     88  N         -5.0590    8.4100   67.1630 N.3    63  THR63      -0.1218
     89  CA        -5.2210    8.8590   68.5430 C.3    63  THR63       0.1862
     90  C         -6.5870    8.4530   69.0940 C.2    63  THR63       0.2287
     91  O         -6.6990    7.9360   70.2090 O.2    63  THR63      -0.2866
     92  CB        -5.0570   10.4020   68.6600 C.3    63  THR63       0.1770
     93  OG1       -3.7730   10.7980   68.1550 O.3    63  THR63      -0.2211
     94  CG2       -5.1730   10.8430   70.1130 C.3    63  THR63       0.0375
     95  N        -12.3650   16.2840   64.8040 N.3    78  LEU78      -0.1231
     96  CA       -12.5950   17.2730   63.7640 C.3    78  LEU78       0.1693
     97  C        -11.3700   17.3090   62.8810 C.2    78  LEU78       0.2593
     98  O        -10.2400   17.1780   63.3670 O.2    78  LEU78      -0.2718
     99  CB       -12.8100   18.6570   64.3680 C.3    78  LEU78       0.0284
    100  CG       -13.7080   18.6780   65.5940 C.3    78  LEU78       0.0019
    101  CD1      -13.7910   20.0910   66.1600 C.3    78  LEU78       0.0001
    102  CD2      -15.0730   18.1490   65.2050 C.3    78  LEU78       0.0001
    103  N        -11.6100   17.4660   61.5830 N.am   79  THR79      -0.1939
    104  CA       -10.5560   17.5620   60.5870 C.3    79  THR79       0.2028
    105  C        -11.0720   18.4010   59.4190 C.2    79  THR79       0.2642
    106  O        -12.2870   18.4970   59.2120 O.2    79  THR79      -0.2714
    107  CB       -10.1470   16.1710   60.0430 C.3    79  THR79       0.1808
    108  OG1       -9.3190   16.3470   58.8870 O.3    79  THR79      -0.2208
    109  CG2      -11.3870   15.3410   59.6560 C.3    79  THR79       0.0379
    110  N        -10.1450   19.0120   58.6810 N.am   80  LEU80      -0.1963
    111  CA       -10.4610   19.8190   57.5020 C.3    80  LEU80       0.1728
    112  C        -10.1520   19.0080   56.2490 C.2    80  LEU80       0.2616
    113  O        -10.3320   19.4840   55.1300 O.2    80  LEU80      -0.2715
    114  CB        -9.6090   21.0960   57.4740 C.3    80  LEU80       0.0311
    115  CG        -9.7990   22.1440   58.5700 C.3    80  LEU80       0.0022
    116  CD1       -8.8980   23.3520   58.2990 C.3    80  LEU80       0.0001
    117  CD2      -11.2520   22.5840   58.5980 C.3    80  LEU80       0.0001
    118  N         -9.6910   17.7750   56.4430 N.am   81  SER81      -0.1950
    119  CA        -9.3190   16.9190   55.3290 C.3    81  SER81       0.1924
    120  C        -10.3600   15.8950   54.9120 C.2    81  SER81       0.2314
    121  O        -10.7560   15.0340   55.6950 O.2    81  SER81      -0.2863
    122  CB        -8.0070   16.1840   55.6400 C.3    81  SER81       0.2116
    123  OG        -7.8130   15.1330   54.7070 O.3    81  SER81      -0.2180
    124  N         -9.1320   12.2630   55.1890 N.3    84  GLN84      -0.1245
    125  CA        -9.0480   11.7990   56.5750 C.3    84  GLN84       0.1566
    126  C        -10.4210   11.5130   57.1650 C.2    84  GLN84       0.2260
    127  O        -10.6150   10.4960   57.8360 O.2    84  GLN84      -0.2867
    128  CB        -8.3100   12.8360   57.4330 C.3    84  GLN84       0.0367
    129  CG        -6.8560   13.0460   57.0000 C.3    84  GLN84       0.0905
    130  CD        -6.1290   14.1470   57.7680 C.2    84  GLN84       0.2608
    131  OE1       -4.9160   14.3090   57.6290 O.2    84  GLN84      -0.2717
    132  NE2       -6.8610   14.9020   58.5660 N.am   84  GLN84      -0.0878
    133  N        -15.0950   19.5320   59.6970 N.3   106  GLU106     -0.1231
    134  CA       -15.3590   20.9310   60.0280 C.3   106  GLU106      0.1699
    135  C        -14.2800   21.4410   60.9780 C.2   106  GLU106      0.2593
    136  O        -13.6460   20.6520   61.6760 O.2   106  GLU106     -0.2718
    137  CB       -16.7310   21.0640   60.7040 C.3   106  GLU106      0.0402
    138  CG       -16.7300   20.6160   62.1640 C.3   106  GLU106      0.1161
    139  CD       -18.1090   20.6140   62.7930 C.2   106  GLU106      0.3649
    140  OE1      -18.1850   20.5150   64.0360 O.co2 106  GLU106     -0.2457
    141  OE2      -19.1120   20.7030   62.0510 O.co2 106  GLU106     -0.2457
    142  N        -14.1000   22.7590   61.0270 N.am  107  GLY107     -0.1942
    143  CA       -13.0930   23.3360   61.9060 C.3   107  GLY107      0.2014
    144  C        -13.5690   23.4530   63.3430 C.2   107  GLY107      0.2639
    145  O        -14.7570   23.3150   63.6160 O.2   107  GLY107     -0.2714
    146  N        -12.6410   23.6900   64.2690 N.am  108  TRP108     -0.1959
    147  CA       -12.9900   23.8300   65.6720 C.3   108  TRP108      0.1771
    148  C        -13.9170   25.0250   65.8890 C.2   108  TRP108      0.2619
    149  O        -14.5940   25.1270   66.9220 O.2   108  TRP108     -0.2715
    150  CB       -11.7250   23.9970   66.5140 C.3   108  TRP108      0.0590
    151  CG       -10.8080   25.0670   66.0010 C.ar  108  TRP108      0.0006
    152  CD1       -9.6940   24.8980   65.2230 C.ar  108  TRP108      0.0946
    153  CD2      -10.9390   26.4770   66.2120 C.ar  108  TRP108      0.0152
    154  NE1       -9.1250   26.1150   64.9400 N.ar  108  TRP108     -0.2442
    155  CE2       -9.8690   27.1030   65.5330 C.ar  108  TRP108      0.0810
    156  CE3      -11.8580   27.2730   66.9090 C.ar  108  TRP108      0.0012
    157  CZ2       -9.6930   28.4930   65.5290 C.ar  108  TRP108      0.0191
    158  CZ3      -11.6800   28.6630   66.9050 C.ar  108  TRP108      0.0001
    159  CH2      -10.6050   29.2530   66.2180 C.ar  108  TRP108      0.0015
    160  N        -13.9420   25.9340   64.9170 N.am  109  GLU109     -0.1977
    161  CA       -14.8030   27.1130   65.0100 C.3   109  GLU109      0.1602
    162  C        -16.2860   26.7550   65.0520 C.2   109  GLU109      0.2287
    163  O        -17.0850   27.4790   65.6490 O.2   109  GLU109     -0.2864
    164  CB       -14.5630   28.0560   63.8330 C.3   109  GLU109      0.0415
    165  CG       -13.9490   27.4050   62.6120 C.3   109  GLU109      0.1163
    166  CD       -12.4790   27.1110   62.8260 C.2   109  GLU109      0.3649
    167  OE1      -11.8070   27.9680   63.4360 O.co2 109  GLU109     -0.2457
    168  OE2      -11.9910   26.0510   62.3880 O.co2 109  GLU109     -0.2457
    169  N         -3.0230   17.6290   68.5270 N.3   121  ILE121     -0.1231
    170  CA        -1.6290   17.3660   68.2210 C.3   121  ILE121      0.1692
    171  C         -1.2530   17.7550   66.8020 C.2   121  ILE121      0.2593
    172  O         -1.7140   17.1390   65.8440 O.2   121  ILE121     -0.2718
    173  CB        -1.3190   15.8540   68.4390 C.3   121  ILE121      0.0266
    174  CG1       -1.5660   15.4820   69.8990 C.3   121  ILE121      0.0019
    175  CG2        0.1160   15.5400   68.0700 C.3   121  ILE121      0.0020
    176  CD1       -1.5550   13.9690   70.1490 C.3   121  ILE121      0.0001
    177  N         -0.4110   18.7790   66.6810 N.am  122  GLY122     -0.1942
    178  CA         0.0450   19.2290   65.3830 C.3   122  GLY122      0.2014
    179  C         -0.9960   19.9380   64.5360 C.2   122  GLY122      0.2638
    180  O         -0.8640   19.9930   63.3070 O.2   122  GLY122     -0.2714
    181  N         -2.0290   20.4800   65.1680 N.am  123  ALA123     -0.1977
    182  CA        -3.0660   21.1940   64.4160 C.3   123  ALA123      0.1597
    183  C         -2.8970   22.7060   64.5420 C.2   123  ALA123      0.2287
    184  O         -3.0560   23.4500   63.5690 O.2   123  ALA123     -0.2864
    185  CB        -4.4340   20.8030   64.9220 C.3   123  ALA123      0.0319
    186  N         -1.5070   25.3310   62.1100 N.3   126  HIS126     -0.1226
    187  CA        -2.2800   25.7070   60.9240 C.3   126  HIS126      0.1752
    188  C         -3.3550   26.7720   61.1760 C.2   126  HIS126      0.2596
    189  O         -3.9710   27.2560   60.2330 O.2   126  HIS126     -0.2718
    190  CB        -2.9820   24.4740   60.3460 C.3   126  HIS126      0.0759
    191  CG        -2.0480   23.4150   59.8570 C.ar  126  HIS126      0.0818
    192  ND1       -1.5120   23.4240   58.5880 N.ar  126  HIS126     -0.2268
    193  CD2       -1.5540   22.3130   60.4680 C.ar  126  HIS126      0.1154
    194  CE1       -0.7310   22.3700   58.4360 C.ar  126  HIS126      0.1986
    195  NE2       -0.7390   21.6800   59.5630 N.ar  126  HIS126     -0.2212
    196  N         -3.5770   27.1320   62.4310 N.am  127  PHE127     -0.1976
    197  CA        -4.6310   28.0890   62.7850 C.3   127  PHE127      0.1639
    198  C         -4.3990   29.5540   62.3930 C.2   127  PHE127      0.2290
    199  O         -5.3130   30.2260   61.9080 O.2   127  PHE127     -0.2864
    200  CB        -4.9070   28.0330   64.2950 C.3   127  PHE127      0.0560
    201  CG        -5.3370   26.6730   64.8020 C.ar  127  PHE127     -0.0200
    202  CD1       -5.4200   26.4320   66.1690 C.ar  127  PHE127     -0.0042
    203  CD2       -5.6340   25.6330   63.9240 C.ar  127  PHE127     -0.0042
    204  CE1       -5.7890   25.1720   66.6580 C.ar  127  PHE127     -0.0003
    205  CE2       -6.0030   24.3750   64.4050 C.ar  127  PHE127     -0.0003
    206  CZ        -6.0790   24.1470   65.7750 C.ar  127  PHE127     -0.0000
    207  N         -6.4720   33.9300   65.0170 N.3   131  ARG131     -0.1245
    208  CA        -7.5740   33.1270   65.5350 C.3   131  ARG131      0.1563
    209  C         -7.2900   32.5050   66.9040 C.2   131  ARG131      0.2260
    210  O         -8.1470   31.8150   67.4660 O.2   131  ARG131     -0.2867
    211  CB        -7.9160   32.0150   64.5360 C.3   131  ARG131      0.0307
    212  CG        -8.0120   32.4860   63.0920 C.3   131  ARG131      0.0489
    213  CD        -9.2080   31.8740   62.4070 C.3   131  ARG131      0.2205
    214  NE        -9.1230   30.4220   62.3170 N.pl3 131  ARG131     -0.0865
    215  CZ       -10.1550   29.6330   62.0270 C.cat 131  ARG131      0.5346
    216  NH1      -11.3550   30.1560   61.8050 N.pl3 131  ARG131      0.1354
    217  NH2       -9.9830   28.3200   61.9420 N.pl3 131  ARG131      0.1354
@<TRIPOS>BOND
     1   123   122    1
     2   120   119    1
     3   120   121    2
     4   113   112    2
     5   124   125    1
     6   119   122    1
     7   119   118    1
     8    85    87   ar
     9    85    83   ar
    10     8     7    2
    11    82    83   ar
    12    82    80   ar
    13    87    86   ar
    14     9     7   am
    15    83    81   ar
    16   112   118   am
    17   112   111    1
    18     7     6    1
    19    28    27    1
    20   125   126    1
    21   125   128    1
    22    80    79   ar
    23   129   128    1
    24   129   130    1
    25   126   127    2
    26    27    25   ar
    27    27    26   ar
    28    86    84   ar
    29    25    23   ar
    30   114   111    1
    31   114   115    1
    32    81    79   ar
    33    81    84   ar
    34   111   110    1
    35     6     5    1
    36   131   130    2
    37   130   132   am
    38    79    78    1
    39    26    24   ar
    40   116   115    1
    41    23    22   ar
    42   194   192   ar
    43   194   195   ar
    44   115   117    1
    45   192   191   ar
    46   110   105   am
    47     5     2    1
    48    24    22   ar
    49   108   107    1
    50    22    21    1
    51   106   105    2
    52    78    75    1
    53   105   104    1
    54   195   193   ar
    55   109   107    1
    56     2     1    1
    57     2     3    1
    58   133   134    1
    59   191   190    1
    60   191   193   ar
    61    21    18    1
    62   134   137    1
    63   134   135    1
    64   107   104    1
    65    75    74    1
    66    75    76    1
    67   189   188    2
    68   190   187    1
    69     4     3    2
    70    73    72    2
    71    74    72   am
    72   104   103    1
    73     3    10   am
    74    72    71    1
    75   137   138    1
    76   187   188    1
    77   187   186    1
    78   135   142   am
    79   135   136    2
    80   142   143    1
    81    77    76    2
    82    71    70    1
    83    18    17    1
    84    18    19    1
    85   188   196   am
    86    13    12    2
    87   103    97   am
    88    10    11    1
    89   216   215    1
    90    17    12   am
    91    12    11    1
    92   143   144    1
    93   199   198    2
    94   217   215    1
    95   215   214    2
    96   141   139   ar
    97    20    19    2
    98    70    66   am
    99    19    29   am
   100   138   139    1
   101   214   213    1
   102   168   166   ar
   103   198   197    1
   104   213   212    1
   105   196   197    1
   106    11    14    1
   107   165   166    1
   108   165   164    1
   109   197   200    1
   110   139   140   ar
   111   166   167   ar
   112    97    98    2
   113    97    96    1
   114    69    68    1
   115    29    30    1
   116   212   211    1
   117    66    67    2
   118    66    65    1
   119   180   179    2
   120   144   145    2
   121   144   146   am
   122   184   183    2
   123    96    99    1
   124    96    95    1
   125   164   161    1
   126   203   205   ar
   127   203   201   ar
   128    14    15    1
   129    14    16    1
   130    61    62    1
   131    61    60    1
   132    64    62   am
   133    64    65    1
   134    30    31    1
   135    30    33    1
   136    62    63    2
   137    65    68    1
   138   146   147    1
   139   200   201    1
   140    99   100    1
   141   205   206   ar
   142   182   183    1
   143   182   185    1
   144   182   181    1
   145   211   208    1
   146   179   181   am
   147   179   178    1
   148    32    31    2
   149   201   202   ar
   150   160   161    1
   151   160   148   am
   152   154   152   ar
   153   154   155   ar
   154   161   162    1
   155   207   208    1
   156    33    34    1
   157   162   163    2
   158    60    54   am
   159   102   100    1
   160   152   151   ar
   161   178   177    1
   162   157   155   ar
   163   157   159   ar
   164   155   153   ar
   165   208   209    1
   166   100   101    1
   167   147   148    1
   168   147   150    1
   169   206   204   ar
   170   172   171    2
   171   148   149    2
   172   151   153   ar
   173   151   150    1
   174   202   204   ar
   175   153   156   ar
   176   159   158   ar
   177    54    55    2
   178    54    53    1
   179   177   171   am
   180   171   170    1
   181   209   210    2
   182   158   156   ar
   183    47    46    2
   184    58    56    1
   185    88    89    1
   186    53    56    1
   187    53    52    1
   188    50    49   ar
   189    43    42    1
   190    51    49   ar
   191    49    48    1
   192    46    52   am
   193    46    45    1
   194    56    57    1
   195   175   173    1
   196    93    92    1
   197   170   173    1
   198   170   169    1
   199    48    45    1
   200   173   174    1
   201    42    41    1
   202    89    92    1
   203    89    90    1
   204    92    94    1
   205    57    59    1
   206    45    44    1
   207    90    91    2
   208    41    40    1
   209   174   176    1
   210    40    39    1
   211    39    36    1
   212    35    36    1
   213    36    37    1
   214    37    38    2
