@<TRIPOS>MOLECULE
tmp/1l1qA00.pdb
 101 97 0 0 0
SMALL
GASTEIGER

@<TRIPOS>ATOM
      1  N          0.4860   29.2710   44.8350 N.3    22  ILE22      -0.1231
      2  CA         1.7090   29.6460   44.1300 C.3    22  ILE22       0.1692
      3  C          2.8920   29.7880   45.0940 C.2    22  ILE22       0.2592
      4  O          2.8380   30.5780   46.0340 O.2    22  ILE22      -0.2718
      5  CB         1.5300   30.9950   43.3630 C.3    22  ILE22       0.0266
      6  CG1        0.5210   30.8350   42.2200 C.3    22  ILE22       0.0019
      7  CG2        2.8740   31.4650   42.8040 C.3    22  ILE22       0.0020
      8  CD1       -0.9110   30.5700   42.6670 C.3    22  ILE22       0.0001
      9  N          3.9470   29.0090   44.8600 N.am   23  ALA23      -0.1966
     10  CA         5.1540   29.0650   45.6840 C.3    23  ALA23       0.1728
     11  C          6.0890   30.1100   45.0680 C.2    23  ALA23       0.2616
     12  O          6.8040   29.8210   44.1060 O.2    23  ALA23      -0.2715
     13  CB         5.8330   27.7010   45.7080 C.3    23  ALA23       0.0334
     14  N          6.0820   31.3170   45.6320 N.am   24  PHE24      -0.1960
     15  CA         6.8910   32.4280   45.1180 C.3    24  PHE24       0.1771
     16  C          8.3610   32.4200   45.5420 C.2    24  PHE24       0.2619
     17  O          8.6770   32.3130   46.7240 O.2    24  PHE24      -0.2715
     18  CB         6.2550   33.7600   45.5390 C.3    24  PHE24       0.0574
     19  CG         6.7960   34.9580   44.7990 C.ar   24  PHE24      -0.0200
     20  CD1        6.2430   35.3540   43.5840 C.ar   24  PHE24      -0.0042
     21  CD2        7.8570   35.6940   45.3190 C.ar   24  PHE24      -0.0042
     22  CE1        6.7410   36.4770   42.8960 C.ar   24  PHE24      -0.0003
     23  CE2        8.3610   36.8130   44.6400 C.ar   24  PHE24      -0.0003
     24  CZ         7.8030   37.2030   43.4330 C.ar   24  PHE24      -0.0000
     25  N          9.2540   32.5610   44.5670 N.am   25  LYS25      -0.1977
     26  CA        10.6870   32.5830   44.8430 C.3    25  LYS25       0.1596
     27  C         11.1490   34.0290   44.9630 C.2    25  LYS25       0.2287
     28  O         11.2300   34.7530   43.9640 O.2    25  LYS25      -0.2864
     29  CB        11.4560   31.8740   43.7260 C.3    25  LYS25       0.0298
     30  CG        11.1190   30.3970   43.6030 C.3    25  LYS25       0.0038
     31  CD        11.5030   29.6250   44.8500 C.3    25  LYS25       0.0206
     32  CE        11.1040   28.1540   44.7360 C.3    25  LYS25       0.1093
     33  NZ        11.5120   27.3810   45.9430 N.3    25  LYS25      -0.1314
     34  N         10.7400   42.3240   36.1360 N.3    62  ARG62      -0.1245
     35  CA        11.3560   41.2280   36.8800 C.3    62  ARG62       0.1563
     36  C         12.7670   40.9130   36.3750 C.2    62  ARG62       0.2260
     37  O         13.5960   40.3730   37.1080 O.2    62  ARG62      -0.2867
     38  CB        10.4590   39.9860   36.7670 C.3    62  ARG62       0.0307
     39  CG        10.0740   39.6630   35.3360 C.3    62  ARG62       0.0489
     40  CD         8.9790   38.6020   35.2330 C.3    62  ARG62       0.2205
     41  NE         9.4980   37.2460   35.3630 N.pl3  62  ARG62      -0.0865
     42  CZ         8.9000   36.1740   34.8550 C.cat  62  ARG62       0.5346
     43  NH1        7.7630   36.3070   34.1830 N.pl3  62  ARG62       0.1354
     44  NH2        9.4370   34.9740   35.0170 N.pl3  62  ARG62       0.1354
     45  N          1.5450   33.1970   31.7510 N.3    98  MET98      -0.1230
     46  CA         2.5890   32.7880   32.6910 C.3    98  MET98       0.1702
     47  C          1.9730   32.0970   33.9150 C.2    98  MET98       0.2592
     48  O          0.7510   32.1050   34.0810 O.2    98  MET98      -0.2718
     49  CB         3.4540   33.9930   33.0950 C.3    98  MET98       0.0401
     50  CG         2.7000   35.2350   33.5500 C.3    98  MET98       0.0596
     51  SD         2.5120   35.3470   35.3410 S.3    98  MET98      -0.1393
     52  CE         4.2210   35.6550   35.8520 C.3    98  MET98       0.0692
     53  N          2.8150   31.5050   34.7630 N.am   99  GLU99      -0.1966
     54  CA         2.3520   30.7610   35.9400 C.3    99  GLU99       0.1733
     55  C          1.1430   31.2910   36.7190 C.2    99  GLU99       0.2616
     56  O          0.2410   30.5180   37.0410 O.2    99  GLU99      -0.2715
     57  CB         3.5090   30.5220   36.9210 C.3    99  GLU99       0.0429
     58  CG         3.0930   29.7170   38.1640 C.3    99  GLU99       0.1163
     59  CD         4.2620   29.3640   39.0710 C.2    99  GLU99       0.3649
     60  OE1        5.0760   30.2640   39.3660 O.co2  99  GLU99      -0.2457
     61  OE2        4.3620   28.1920   39.4980 O.co2  99  GLU99      -0.2457
     62  N          1.1100   32.5820   37.0370 N.am  100  TYR100     -0.1974
     63  CA        -0.0250   33.1180   37.7860 C.3   100  TYR100      0.1639
     64  C         -0.7510   34.2900   37.1140 C.2   100  TYR100      0.2290
     65  O         -1.2920   35.1740   37.7800 O.2   100  TYR100     -0.2864
     66  CB         0.4130   33.4990   39.2090 C.3   100  TYR100      0.0560
     67  CG         1.6340   34.3870   39.2910 C.ar  100  TYR100     -0.0198
     68  CD1        1.6010   35.6990   38.8250 C.ar  100  TYR100     -0.0009
     69  CD2        2.8240   33.9160   39.8510 C.ar  100  TYR100     -0.0009
     70  CE1        2.7240   36.5280   38.9130 C.ar  100  TYR100      0.0417
     71  CE2        3.9580   34.7370   39.9440 C.ar  100  TYR100      0.0417
     72  CZ         3.8960   36.0400   39.4740 C.ar  100  TYR100      0.1957
     73  OH         5.0000   36.8620   39.5630 O.3   100  TYR100     -0.2866
     74  N         14.3710   36.6720   35.4110 N.3   124  ASP124     -0.1225
     75  CA        14.7440   36.3420   36.7690 C.3   124  ASP124      0.1805
     76  C         14.4370   34.8840   37.1120 C.2   124  ASP124      0.2597
     77  O         15.2840   34.1760   37.6400 O.2   124  ASP124     -0.2718
     78  CB        14.0390   37.2800   37.7650 C.3   124  ASP124      0.1424
     79  CG        12.5350   37.0450   37.8430 C.2   124  ASP124      0.3668
     80  OD1       11.9500   37.3390   38.9080 O.co2 124  ASP124     -0.2456
     81  OD2       11.9340   36.5810   36.8480 O.co2 124  ASP124     -0.2456
     82  N         13.2360   34.4360   36.7760 N.am  125  VAL125     -0.1980
     83  CA        12.8160   33.0740   37.1020 C.3   125  VAL125      0.1595
     84  C         12.1840   32.3560   35.9190 C.2   125  VAL125      0.2287
     85  O         11.3480   32.9310   35.2180 O.2   125  VAL125     -0.2864
     86  CB        11.7710   33.0870   38.2540 C.3   125  VAL125      0.0276
     87  CG1       11.2230   31.6700   38.4950 C.3   125  VAL125      0.0022
     88  CG2       12.3940   33.6420   39.5240 C.3   125  VAL125      0.0022
     89  N          9.7440   29.5700   35.0520 N.3   127  ALA127     -0.1245
     90  CA         8.6990   28.7310   35.6190 C.3   127  ALA127      0.1562
     91  C          8.0970   27.8710   34.5100 C.2   127  ALA127      0.2260
     92  O          8.6910   26.8650   34.1290 O.2   127  ALA127     -0.2867
     93  CB         7.6330   29.5900   36.2750 C.3   127  ALA127      0.0290
     94  N         13.0910   26.7090   38.0430 N.3   157  ILE157     -0.1245
     95  CA        12.2540   25.7710   38.7930 C.3   157  ILE157      0.1561
     96  C         12.0310   24.5830   37.8510 C.2   157  ILE157      0.2260
     97  O         10.9890   24.4740   37.2130 O.2   157  ILE157     -0.2867
     98  CB        10.8860   26.3960   39.1450 C.3   157  ILE157      0.0252
     99  CG1       11.0890   27.6710   39.9680 C.3   157  ILE157      0.0019
    100  CG2       10.0480   25.4030   39.9380 C.3   157  ILE157      0.0019
    101  CD1        9.8240   28.4530   40.2300 C.3   157  ILE157      0.0001
@<TRIPOS>BOND
     1    45    46    1
     2    46    49    1
     3    46    47    1
     4    49    50    1
     5    50    51    1
     6    47    48    2
     7    47    53   am
     8    92    91    2
     9    43    42    1
    10    91    90    1
    11    53    54    1
    12    42    44    1
    13    42    41    2
    14    89    90    1
    15    85    84    2
    16    40    39    1
    17    40    41    1
    18    39    38    1
    19    51    52    1
    20    74    75    1
    21    90    93    1
    22    84    83    1
    23    54    55    1
    24    54    57    1
    25    34    35    1
    26    36    35    1
    27    36    37    2
    28    55    62   am
    29    55    56    2
    30    38    35    1
    31    75    76    1
    32    75    78    1
    33    82    83    1
    34    82    76   am
    35    81    79   ar
    36    57    58    1
    37    62    63    1
    38    83    86    1
    39    76    77    2
    40    64    65    2
    41    64    63    1
    42    97    96    2
    43    78    79    1
    44    63    66    1
    45    79    80   ar
    46    96    95    1
    47    94    95    1
    48    58    59    1
    49    86    87    1
    50    86    88    1
    51    95    98    1
    52    68    70   ar
    53    68    67   ar
    54    70    72   ar
    55    59    60   ar
    56    59    61   ar
    57    98   100    1
    58    98    99    1
    59    66    67    1
    60    67    69   ar
    61    72    73    1
    62    72    71   ar
    63    69    71   ar
    64    99   101    1
    65     6     8    1
    66     6     5    1
    67     7     5    1
    68    22    24   ar
    69    22    20   ar
    70     5     2    1
    71    24    23   ar
    72    20    19   ar
    73    30    29    1
    74    30    31    1
    75    29    26    1
    76    28    27    2
    77    12    11    2
    78     2     1    1
    79     2     3    1
    80    25    26    1
    81    25    16   am
    82    23    21   ar
    83    32    31    1
    84    32    33    1
    85    19    21   ar
    86    19    18    1
    87    26    27    1
    88     9     3   am
    89     9    10    1
    90    11    14   am
    91    11    10    1
    92     3     4    2
    93    15    18    1
    94    15    16    1
    95    15    14    1
    96    16    17    2
    97    10    13    1
