@<TRIPOS>MOLECULE
tmp/1l1rA01.pdb
 160 156 0 0 0
SMALL
GASTEIGER

@<TRIPOS>ATOM
      1  N         13.3130   41.5700   30.6320 N.3    59  ILE59      -0.1231
      2  CA        11.8610   41.5560   30.6980 C.3    59  ILE59       0.1692
      3  C         11.2430   42.2520   31.9040 C.2    59  ILE59       0.2592
      4  O         11.5600   41.9560   33.0570 O.2    59  ILE59      -0.2718
      5  CB        11.3620   40.1060   30.6260 C.3    59  ILE59       0.0266
      6  CG1       12.0390   39.4120   29.4310 C.3    59  ILE59       0.0019
      7  CG2        9.8420   40.0820   30.4860 C.3    59  ILE59       0.0020
      8  CD1       11.5630   38.0060   29.1390 C.3    59  ILE59       0.0001
      9  N         10.3540   43.1920   31.6300 N.am   60  GLU60      -0.1966
     10  CA         9.7180   43.9110   32.7030 C.3    60  GLU60       0.1733
     11  C          9.0260   42.8930   33.6090 C.2    60  GLU60       0.2617
     12  O          8.3230   41.9910   33.1460 O.2    60  GLU60      -0.2715
     13  CB         8.7160   44.9070   32.1220 C.3    60  GLU60       0.0429
     14  CG         7.8650   45.5720   33.1870 C.3    60  GLU60       0.1163
     15  CD         7.0680   46.7270   32.6330 C.2    60  GLU60       0.3649
     16  OE1        6.8630   47.7090   33.3680 O.co2  60  GLU60      -0.2457
     17  OE2        6.6300   46.6450   31.4610 O.co2  60  GLU60      -0.2457
     18  N          9.2370   43.0350   34.9160 N.am   61  SER61      -0.1936
     19  CA        10.0610   44.1020   35.4510 C.3    61  SER61       0.2055
     20  C         11.2610   43.5840   36.2210 C.2    61  SER61       0.2643
     21  O         12.3160   44.1960   36.2180 O.2    61  SER61      -0.2714
     22  CB         9.2200   45.0040   36.3500 C.3    61  SER61       0.2130
     23  OG         9.3860   44.6790   37.7110 O.3    61  SER61      -0.2179
     24  N         11.1340   42.4210   36.8380 N.am   62  ARG62      -0.1963
     25  CA        12.2720   41.8880   37.5790 C.3    62  ARG62       0.1729
     26  C         13.4580   41.5680   36.6760 C.2    62  ARG62       0.2616
     27  O         14.5980   41.5040   37.1400 O.2    62  ARG62      -0.2715
     28  CB        11.8410   40.6800   38.4000 C.3    62  ARG62       0.0348
     29  CG        11.0730   41.1020   39.6560 C.3    62  ARG62       0.0492
     30  CD         9.8410   40.2610   39.8960 C.3    62  ARG62       0.2205
     31  NE        10.1720   38.8570   40.0610 N.pl3  62  ARG62      -0.0865
     32  CZ         9.2810   37.8880   40.2320 C.cat  62  ARG62       0.5346
     33  NH1        7.9820   38.1660   40.2620 N.pl3  62  ARG62       0.1354
     34  NH2        9.6990   36.6340   40.3730 N.pl3  62  ARG62       0.1354
     35  N         13.2010   41.3950   35.3820 N.am   63  GLY63      -0.1955
     36  CA        14.2760   41.1200   34.4470 C.3    63  GLY63       0.1869
     37  C         15.1360   42.3530   34.1930 C.2    63  GLY63       0.2309
     38  O         16.1810   42.2720   33.5300 O.2    63  GLY63      -0.2863
     39  N          5.4470   45.6370   29.5120 N.3    83  LYS83      -0.1245
     40  CA         4.0000   45.5020   29.4700 C.3    83  LYS83       0.1561
     41  C          3.4000   46.5290   28.5320 C.2    83  LYS83       0.2260
     42  O          3.8030   47.6860   28.5190 O.2    83  LYS83      -0.2867
     43  CB         3.4170   45.6570   30.8750 C.3    83  LYS83       0.0271
     44  CG         3.1870   44.3350   31.5970 C.3    83  LYS83       0.0035
     45  CD         4.4310   43.4670   31.6360 C.3    83  LYS83       0.0206
     46  CE         4.2010   42.2080   32.4650 C.3    83  LYS83       0.1093
     47  NZ         3.9990   42.5190   33.9170 N.3    83  LYS83      -0.1314
     48  N          0.4800   36.6510   25.9210 N.3    96  PHE96      -0.1241
     49  CA         0.7380   35.3120   26.4690 C.3    96  PHE96       0.1605
     50  C          0.1240   35.0920   27.8610 C.2    96  PHE96       0.2264
     51  O         -0.6150   35.9330   28.3720 O.2    96  PHE96      -0.2867
     52  CB         2.2420   35.1030   26.5780 C.3    96  PHE96       0.0534
     53  CG         2.8710   35.9360   27.6510 C.ar   96  PHE96      -0.0203
     54  CD1        3.1580   35.3860   28.8970 C.ar   96  PHE96      -0.0042
     55  CD2        3.0930   37.2980   27.4480 C.ar   96  PHE96      -0.0042
     56  CE1        3.6560   36.1840   29.9350 C.ar   96  PHE96      -0.0003
     57  CE2        3.5880   38.1050   28.4760 C.ar   96  PHE96      -0.0003
     58  CZ         3.8690   37.5450   29.7220 C.ar   96  PHE96      -0.0000
     59  N          1.2090   33.4420   31.9300 N.3    98  MET98      -0.1230
     60  CA         2.2470   32.9350   32.8340 C.3    98  MET98       0.1702
     61  C          1.6320   32.2880   34.0840 C.2    98  MET98       0.2592
     62  O          0.4100   32.2490   34.2190 O.2    98  MET98      -0.2718
     63  CB         3.2550   34.0440   33.1970 C.3    98  MET98       0.0401
     64  CG         2.6760   35.3780   33.6530 C.3    98  MET98       0.0596
     65  SD         2.1800   35.4150   35.3950 S.3    98  MET98      -0.1393
     66  CE         3.7360   35.1230   36.2150 C.3    98  MET98       0.0692
     67  N          2.4690   31.7830   34.9910 N.am   99  GLU99      -0.1966
     68  CA         1.9870   31.0830   36.1910 C.3    99  GLU99       0.1733
     69  C          0.8080   31.6640   36.9790 C.2    99  GLU99       0.2616
     70  O         -0.0720   30.9130   37.4010 O.2    99  GLU99      -0.2715
     71  CB         3.1400   30.8200   37.1670 C.3    99  GLU99       0.0429
     72  CG         2.8040   29.7280   38.1950 C.3    99  GLU99       0.1163
     73  CD         3.7890   29.6600   39.3490 C.2    99  GLU99       0.3649
     74  OE1        3.9280   30.6710   40.0660 O.co2  99  GLU99      -0.2457
     75  OE2        4.4200   28.5990   39.5440 O.co2  99  GLU99      -0.2457
     76  N          0.7750   32.9750   37.1970 N.am  100  TYR100     -0.1974
     77  CA        -0.3380   33.5570   37.9510 C.3   100  TYR100      0.1639
     78  C         -1.0560   34.7520   37.3090 C.2   100  TYR100      0.2290
     79  O         -1.4920   35.6760   38.0020 O.2   100  TYR100     -0.2864
     80  CB         0.1170   33.9110   39.3810 C.3   100  TYR100      0.0560
     81  CG         1.4520   34.6230   39.4980 C.ar  100  TYR100     -0.0198
     82  CD1        1.6250   35.9240   39.0290 C.ar  100  TYR100     -0.0009
     83  CD2        2.5380   34.0020   40.1130 C.ar  100  TYR100     -0.0009
     84  CE1        2.8500   36.5930   39.1740 C.ar  100  TYR100      0.0417
     85  CE2        3.7690   34.6610   40.2630 C.ar  100  TYR100      0.0417
     86  CZ         3.9130   35.9530   39.7900 C.ar  100  TYR100      0.1957
     87  OH         5.1250   36.6000   39.9300 O.3   100  TYR100     -0.2866
     88  N         -1.5510   38.3950   29.3500 N.3   104  VAL104     -0.1245
     89  CA        -0.5030   39.4060   29.4390 C.3   104  VAL104      0.1561
     90  C         -0.0320   39.8030   28.0460 C.2   104  VAL104      0.2260
     91  O         -0.0510   38.9960   27.1110 O.2   104  VAL104     -0.2867
     92  CB         0.6660   38.8800   30.2530 C.3   104  VAL104      0.0252
     93  CG1        1.5050   40.0920   30.6640 C.3   104  VAL104      0.0019
     94  CG2        0.1010   38.1950   31.4970 C.3   104  VAL104      0.0019
     95  N         15.7930   37.1310   32.1160 N.3   123  ASP123     -0.1225
     96  CA        14.6870   37.2890   33.0400 C.3   123  ASP123      0.1805
     97  C         15.1410   36.6640   34.3520 C.2   123  ASP123      0.2598
     98  O         16.0880   35.8550   34.3840 O.2   123  ASP123     -0.2718
     99  CB        13.4000   36.6240   32.5310 C.3   123  ASP123      0.1424
    100  CG        12.1440   37.3260   33.0490 C.2   123  ASP123      0.3668
    101  OD1       12.2610   38.1740   33.9580 O.co2 123  ASP123     -0.2456
    102  OD2       11.0360   37.0460   32.5530 O.co2 123  ASP123     -0.2456
    103  N         14.4930   37.0310   35.4430 N.am  124  ASP124     -0.1960
    104  CA        14.9120   36.5000   36.7330 C.3   124  ASP124      0.1840
    105  C         14.5450   35.0380   37.0170 C.2   124  ASP124      0.2622
    106  O         15.3840   34.2670   37.4680 O.2   124  ASP124     -0.2715
    107  CB        14.3920   37.3800   37.8700 C.3   124  ASP124      0.1450
    108  CG        12.8780   37.3980   37.9620 C.2   124  ASP124      0.3671
    109  OD1       12.3680   37.6010   39.0870 O.co2 124  ASP124     -0.2456
    110  OD2       12.1990   37.2320   36.9290 O.co2 124  ASP124     -0.2456
    111  N         13.3000   34.6650   36.7380 N.am  125  VAL125     -0.1963
    112  CA        12.8280   33.3180   37.0200 C.3   125  VAL125      0.1727
    113  C         12.1740   32.6240   35.8210 C.2   125  VAL125      0.2616
    114  O         11.3580   33.2200   35.1050 O.2   125  VAL125     -0.2715
    115  CB        11.7710   33.3400   38.1680 C.3   125  VAL125      0.0290
    116  CG1       11.1590   31.9540   38.3550 C.3   125  VAL125      0.0023
    117  CG2       12.3990   33.8040   39.4610 C.3   125  VAL125      0.0023
    118  N         12.5410   31.3650   35.6070 N.am  126  LEU126     -0.1963
    119  CA        11.9330   30.5670   34.5510 C.3   126  LEU126      0.1728
    120  C         10.9610   29.6290   35.2630 C.2   126  LEU126      0.2616
    121  O         11.3810   28.7280   35.9960 O.2   126  LEU126     -0.2715
    122  CB        12.9840   29.7450   33.7930 C.3   126  LEU126      0.0311
    123  CG        12.4840   28.5970   32.8860 C.3   126  LEU126      0.0022
    124  CD1       11.4530   29.1170   31.8970 C.3   126  LEU126      0.0001
    125  CD2       13.6630   27.9580   32.1500 C.3   126  LEU126      0.0001
    126  N          9.6660   29.8690   35.0800 N.am  127  ALA127     -0.1963
    127  CA         8.6420   29.0200   35.6850 C.3   127  ALA127      0.1728
    128  C          8.1140   28.1300   34.5680 C.2   127  ALA127      0.2617
    129  O          8.7810   27.1750   34.1750 O.2   127  ALA127     -0.2715
    130  CB         7.5200   29.8660   36.2710 C.3   127  ALA127      0.0334
    131  N          6.9400   28.4600   34.0390 N.am  128  THR128     -0.1937
    132  CA         6.3460   27.6730   32.9580 C.3   128  THR128      0.2028
    133  C          7.1030   27.8850   31.6520 C.2   128  THR128      0.2643
    134  O          7.2940   26.9450   30.8720 O.2   128  THR128     -0.2714
    135  CB         4.8720   28.0570   32.7140 C.3   128  THR128      0.1808
    136  OG1        4.8070   29.3690   32.1420 O.3   128  THR128     -0.2208
    137  CG2        4.0910   28.0460   34.0230 C.3   128  THR128      0.0379
    138  N          7.5280   29.1240   31.4150 N.am  129  GLY129     -0.1939
    139  CA         8.2620   29.4320   30.2030 C.3   129  GLY129      0.2014
    140  C          7.4570   30.2630   29.2260 C.2   129  GLY129      0.2639
    141  O          7.9280   30.5580   28.1260 O.2   129  GLY129     -0.2714
    142  N          6.2460   30.6450   29.6290 N.am  130  GLY130     -0.1939
    143  CA         5.3870   31.4500   28.7770 C.3   130  GLY130      0.2014
    144  C          5.9030   32.8530   28.5050 C.2   130  GLY130      0.2640
    145  O          5.8280   33.3440   27.3750 O.2   130  GLY130     -0.2714
    146  N          6.4270   33.5190   29.5310 N.am  131  THR131     -0.1936
    147  CA         6.9510   34.8700   29.3330 C.3   131  THR131      0.2028
    148  C          8.1240   34.8520   28.3560 C.2   131  THR131      0.2642
    149  O          8.2180   35.7010   27.4630 O.2   131  THR131     -0.2714
    150  CB         7.4250   35.5080   30.6660 C.3   131  THR131      0.1808
    151  OG1        6.3140   35.6370   31.5600 O.3   131  THR131     -0.2208
    152  CG2        8.0170   36.9010   30.4130 C.3   131  THR131      0.0379
    153  N          9.0170   33.8840   28.5200 N.am  132  LEU132     -0.1977
    154  CA        10.1730   33.7930   27.6480 C.3   132  LEU132      0.1596
    155  C          9.8160   33.3570   26.2290 C.2   132  LEU132      0.2287
    156  O         10.3760   33.8710   25.2560 O.2   132  LEU132     -0.2864
    157  CB        11.2230   32.8560   28.2520 C.3   132  LEU132      0.0297
    158  CG        12.1950   33.5220   29.2410 C.3   132  LEU132      0.0022
    159  CD1       12.9660   32.4610   29.9970 C.3   132  LEU132      0.0001
    160  CD2       13.1630   34.4450   28.4860 C.3   132  LEU132      0.0001
@<TRIPOS>BOND
     1   156   155    2
     2    48    49    1
     3   155   154    1
     4    49    52    1
     5    49    50    1
     6    52    53    1
     7    91    90    2
     8   145   144    2
     9    55    53   ar
    10    55    57   ar
    11   149   148    2
    12   154   157    1
    13   154   153    1
    14    53    54   ar
    15    50    51    2
    16    90    89    1
    17   141   140    2
    18   157   158    1
    19   148   153   am
    20   148   147    1
    21    57    58   ar
    22   160   158    1
    23   144   143    1
    24   144   146   am
    25    42    41    2
    26    41    40    1
    27   143   142    1
    28    54    56   ar
    29     8     6    1
    30   140   142   am
    31   140   139    1
    32   158   159    1
    33   147   146    1
    34   147   150    1
    35    88    89    1
    36     6     5    1
    37    89    92    1
    38    40    39    1
    39    40    43    1
    40    58    56   ar
    41   139   138    1
    42    92    93    1
    43    92    94    1
    44   152   150    1
    45     7     5    1
    46     5     2    1
    47     1     2    1
    48   150   151    1
    49     2     3    1
    50   134   133    2
    51    43    44    1
    52   138   133   am
    53    17    15   ar
    54    44    45    1
    55     9     3   am
    56     9    10    1
    57    45    46    1
    58   133   132    1
    59   124   123    1
    60     3     4    2
    61    59    60    1
    62    95    96    1
    63    13    10    1
    64    13    14    1
    65   136   135    1
    66   125   123    1
    67    46    47    1
    68    99    96    1
    69    99   100    1
    70   102   100   ar
    71    15    14    1
    72    15    16   ar
    73    10    11    1
    74   135   132    1
    75   135   137    1
    76    60    63    1
    77    60    61    1
    78   123   122    1
    79   132   131    1
    80    96    97    1
    81   100   101   ar
    82    12    11    2
    83    63    64    1
    84    38    37    2
    85    11    18   am
    86    64    65    1
    87   122   119    1
    88   131   128   am
    89    61    62    2
    90    61    67   am
    91   129   128    2
    92    37    36    1
    93    97    98    2
    94    97   103   am
    95    36    35    1
    96   119   120    1
    97   119   118    1
    98   128   127    1
    99    18    19    1
   100    67    68    1
   101   126   120   am
   102   126   127    1
   103   114   113    2
   104   120   121    2
   105    35    26   am
   106    65    66    1
   107   103   104    1
   108    19    20    1
   109    19    22    1
   110   118   113   am
   111   127   130    1
   112   113   112    1
   113    68    69    1
   114    68    71    1
   115    21    20    2
   116    20    24   am
   117    22    23    1
   118    26    27    2
   119    26    25    1
   120   104   105    1
   121   104   107    1
   122   111   105   am
   123   111   112    1
   124    24    25    1
   125   110   108   ar
   126    69    76   am
   127    69    70    2
   128   105   106    2
   129   112   115    1
   130    71    72    1
   131    76    77    1
   132    78    77    1
   133    78    79    2
   134    25    28    1
   135   107   108    1
   136    77    80    1
   137   108   109   ar
   138   115   116    1
   139   115   117    1
   140    72    73    1
   141    28    29    1
   142    82    84   ar
   143    82    81   ar
   144    84    86   ar
   145    73    75   ar
   146    73    74   ar
   147    80    81    1
   148    81    83   ar
   149    29    30    1
   150    86    87    1
   151    86    85   ar
   152    30    31    1
   153    31    32    2
   154    83    85   ar
   155    32    33    1
   156    32    34    1
