@<TRIPOS>MOLECULE
tmp/1l2aD00.pdb
 165 161 0 0 0
SMALL
GASTEIGER

@<TRIPOS>ATOM
      1  N         24.1370  118.3940   87.9560 N.3    41  HIS41      -0.1241
      2  CA        25.2290  118.8740   87.0870 C.3    41  HIS41       0.1621
      3  C         26.4980  119.0760   87.9360 C.2    41  HIS41       0.2264
      4  O         27.5890  118.6350   87.5690 O.2    41  HIS41      -0.2867
      5  CB        24.8510  120.1680   86.3400 C.3    41  HIS41       0.0745
      6  CG        25.9590  120.7360   85.5050 C.ar   41  HIS41       0.0817
      7  ND1       26.3870  120.1520   84.3260 N.ar   41  HIS41      -0.2268
      8  CD2       26.7410  121.8290   85.6830 C.ar   41  HIS41       0.1154
      9  CE1       27.3730  120.8660   83.8070 C.ar   41  HIS41       0.1986
     10  NE2       27.6050  121.8920   84.6080 N.ar   41  HIS41      -0.2212
     11  N         26.8770  127.7110   82.1930 N.3    49  GLU49      -0.1231
     12  CA        27.5320  127.1880   80.9820 C.3    49  GLU49       0.1699
     13  C         26.3380  126.4290   80.3700 C.2    49  GLU49       0.2592
     14  O         25.2310  126.6550   80.8370 O.2    49  GLU49      -0.2718
     15  CB        28.7050  126.2650   81.3520 C.3    49  GLU49       0.0402
     16  CG        28.4200  125.2050   82.4330 C.3    49  GLU49       0.1161
     17  CD        29.6850  124.6280   83.0910 C.2    49  GLU49       0.3649
     18  OE1       30.6460  125.3880   83.2900 O.co2  49  GLU49      -0.2457
     19  OE2       29.7210  123.4210   83.4420 O.co2  49  GLU49      -0.2457
     20  N         26.4630  125.5440   79.3970 N.am   50  ALA50      -0.1966
     21  CA        25.2330  124.8290   78.9460 C.3    50  ALA50       0.1713
     22  C         23.9380  124.8560   79.8610 C.2    50  ALA50       0.2458
     23  O         22.9690  125.5230   79.5020 O.2    50  ALA50      -0.2730
     24  CB        25.5560  123.4200   78.4450 C.3    50  ALA50       0.0333
     25  N         23.8700  124.1580   81.0020 N.am   51  PRO51      -0.2727
     26  CA        22.8060  124.4500   81.9800 C.3    51  PRO51       0.1402
     27  C         23.0550  125.7740   82.7400 C.2    51  PRO51       0.2269
     28  O         24.1840  126.2520   82.7880 O.2    51  PRO51      -0.2865
     29  CB        22.8870  123.2750   82.9410 C.3    51  PRO51       0.0296
     30  CG        24.2990  122.8140   82.8650 C.3    51  PRO51       0.0237
     31  CD        24.7310  123.0530   81.4550 C.3    51  PRO51       0.0939
     32  N         21.1070  116.7500   83.8920 N.3    58  THR58      -0.1218
     33  CA        21.1050  116.6000   82.4420 C.3    58  THR58       0.1862
     34  C         21.2150  115.1270   82.0190 C.2    58  THR58       0.2287
     35  O         21.7050  114.2800   82.7800 O.2    58  THR58      -0.2866
     36  CB        22.2760  117.3470   81.8220 C.3    58  THR58       0.1770
     37  OG1       23.4880  116.8370   82.3830 O.3    58  THR58      -0.2211
     38  CG2       22.2610  118.8000   82.1960 C.3    58  THR58       0.0375
     39  N         23.2820  114.1130   79.9440 N.3    60  GLU60      -0.1245
     40  CA        24.7250  113.9570   80.0120 C.3    60  GLU60       0.1567
     41  C         25.1370  113.3810   81.3800 C.2    60  GLU60       0.2260
     42  O         25.7910  112.3350   81.4560 O.2    60  GLU60      -0.2867
     43  CB        25.3130  115.3370   79.8310 C.3    60  GLU60       0.0388
     44  CG        26.8130  115.4320   79.7950 C.3    60  GLU60       0.1160
     45  CD        27.2210  116.8750   79.6640 C.2    60  GLU60       0.3649
     46  OE1       27.4920  117.3170   78.5140 O.co2  60  GLU60      -0.2457
     47  OE2       27.2160  117.5720   80.7110 O.co2  60  GLU60      -0.2457
     48  N         24.2040  112.9040   72.2490 N.3   228  ASP228     -0.1239
     49  CA        25.5170  112.4080   72.6890 C.3   228  ASP228      0.1674
     50  C         25.4020  111.7090   74.0470 C.2   228  ASP228      0.2266
     51  O         26.1950  110.8020   74.3550 O.2   228  ASP228     -0.2867
     52  CB        26.6310  113.4820   72.6770 C.3   228  ASP228      0.1410
     53  CG        26.2890  114.7160   73.5090 C.2   228  ASP228      0.3668
     54  OD1       25.0880  115.0530   73.6570 O.co2 228  ASP228     -0.2456
     55  OD2       27.1680  115.4340   74.0360 O.co2 228  ASP228     -0.2456
     56  N         35.2110  125.1410   72.0430 N.3   412  TRP412     -0.1241
     57  CA        35.5960  124.3010   73.1690 C.3   412  TRP412      0.1605
     58  C         36.4640  123.1130   72.7270 C.2   412  TRP412      0.2264
     59  O         36.0280  122.2960   71.9100 O.2   412  TRP412     -0.2867
     60  CB        34.3470  123.8040   73.8840 C.3   412  TRP412      0.0550
     61  CG        34.5820  123.1200   75.1710 C.ar  412  TRP412      0.0003
     62  CD1       35.3890  123.5320   76.1720 C.ar  412  TRP412      0.0946
     63  CD2       33.9360  121.9180   75.6460 C.ar  412  TRP412      0.0152
     64  NE1       35.3040  122.6700   77.2430 N.ar  412  TRP412     -0.2442
     65  CE2       34.4180  121.6690   76.9490 C.ar  412  TRP412      0.0810
     66  CE3       32.9880  121.0280   75.1040 C.ar  412  TRP412      0.0012
     67  CZ2       33.9970  120.5640   77.7220 C.ar  412  TRP412      0.0191
     68  CZ3       32.5780  119.9240   75.8800 C.ar  412  TRP412      0.0001
     69  CH2       33.0860  119.7100   77.1720 C.ar  412  TRP412      0.0015
     70  N         35.1690  119.0240   73.0470 N.3   415  PHE415     -0.1241
     71  CA        34.5810  118.1240   72.0690 C.3   415  PHE415      0.1605
     72  C         35.6220  117.2490   71.3870 C.2   415  PHE415      0.2264
     73  O         35.3200  116.1110   71.0530 O.2   415  PHE415     -0.2867
     74  CB        33.7600  118.8770   71.0200 C.3   415  PHE415      0.0534
     75  CG        32.4300  119.3600   71.5270 C.ar  415  PHE415     -0.0203
     76  CD1       32.0510  120.6920   71.3460 C.ar  415  PHE415     -0.0042
     77  CD2       31.5580  118.4870   72.1960 C.ar  415  PHE415     -0.0042
     78  CE1       30.8100  121.1440   71.8050 C.ar  415  PHE415     -0.0003
     79  CE2       30.3190  118.9290   72.6640 C.ar  415  PHE415     -0.0003
     80  CZ        29.9430  120.2550   72.4840 C.ar  415  PHE415     -0.0000
     81  N         36.1500  114.3880   73.9200 N.3   418  TRP418     -0.1241
     82  CA        34.9160  113.6180   74.0650 C.3   418  TRP418      0.1605
     83  C         34.6050  112.7520   72.8520 C.2   418  TRP418      0.2264
     84  O         34.2290  111.5930   72.9870 O.2   418  TRP418     -0.2867
     85  CB        33.7360  114.5580   74.2690 C.3   418  TRP418      0.0550
     86  CG        33.5000  114.9250   75.6840 C.ar  418  TRP418      0.0003
     87  CD1       34.3280  114.6810   76.7370 C.ar  418  TRP418      0.0946
     88  CD2       32.3810  115.6370   76.2140 C.ar  418  TRP418      0.0152
     89  NE1       33.7930  115.1840   77.8950 N.ar  418  TRP418     -0.2442
     90  CE2       32.5970  115.7810   77.6100 C.ar  418  TRP418      0.0810
     91  CE3       31.2050  116.1570   75.6620 C.ar  418  TRP418      0.0012
     92  CZ2       31.6700  116.4030   78.4650 C.ar  418  TRP418      0.0191
     93  CZ3       30.2900  116.8090   76.5110 C.ar  418  TRP418      0.0001
     94  CH2       30.5290  116.9130   77.9000 C.ar  418  TRP418      0.0015
     95  N         40.5570  126.8210   74.4420 N.3   463  ASP463     -0.1239
     96  CA        39.8150  127.4870   73.3800 C.3   463  ASP463      0.1674
     97  C         40.4880  127.3100   72.0340 C.2   463  ASP463      0.2266
     98  O         41.6950  127.4870   71.9100 O.2   463  ASP463     -0.2867
     99  CB        39.7690  129.0020   73.6330 C.3   463  ASP463      0.1410
    100  CG        38.7950  129.4030   74.7140 C.2   463  ASP463      0.3668
    101  OD1       37.8640  128.6160   75.0410 O.co2 463  ASP463     -0.2456
    102  OD2       38.8840  130.5200   75.2850 O.co2 463  ASP463     -0.2456
    103  N         41.1290  122.1690   82.9530 N.3   493  ASP493     -0.1239
    104  CA        39.7830  121.6250   83.0150 C.3   493  ASP493      0.1674
    105  C         39.8760  120.1280   83.3090 C.2   493  ASP493      0.2266
    106  O         40.4050  119.3600   82.4850 O.2   493  ASP493     -0.2867
    107  CB        39.0990  121.8770   81.6580 C.3   493  ASP493      0.1410
    108  CG        37.6230  121.5020   81.6480 C.2   493  ASP493      0.3668
    109  OD1       37.2880  120.3450   82.0150 O.co2 493  ASP493     -0.2456
    110  OD2       36.7350  122.3050   81.2470 O.co2 493  ASP493     -0.2456
    111  N         38.7000  128.0910   88.8260 N.3   549  GLU549     -0.1245
    112  CA        38.4650  128.7230   87.5090 C.3   549  GLU549      0.1567
    113  C         37.9810  130.1710   87.5600 C.2   549  GLU549      0.2260
    114  O         37.0240  130.5010   88.2300 O.2   549  GLU549     -0.2867
    115  CB        37.5450  127.8530   86.6150 C.3   549  GLU549      0.0388
    116  CG        36.2370  127.4060   87.2770 C.3   549  GLU549      0.1160
    117  CD        35.4220  126.4730   86.3890 C.2   549  GLU549      0.3649
    118  OE1       35.5270  125.2390   86.5080 O.co2 549  GLU549     -0.2457
    119  OE2       34.6770  126.9770   85.5370 O.co2 549  GLU549     -0.2457
    120  N         36.0160  133.0300   86.1100 N.3   551  ARG551     -0.1245
    121  CA        34.8300  133.0800   85.2900 C.3   551  ARG551      0.1563
    122  C         34.4920  134.5260   84.9040 C.2   551  ARG551      0.2260
    123  O         33.5120  135.0760   85.3840 O.2   551  ARG551     -0.2867
    124  CB        33.6770  132.4170   86.0430 C.3   551  ARG551      0.0307
    125  CG        33.8470  130.8910   86.2380 C.3   551  ARG551      0.0489
    126  CD        34.1230  130.0640   84.9410 C.3   551  ARG551      0.2205
    127  NE        33.0420  130.2370   83.9710 N.pl3 551  ARG551     -0.0865
    128  CZ        32.1230  129.3370   83.6700 C.cat 551  ARG551      0.5346
    129  NH1       31.1960  129.6440   82.7790 N.pl3 551  ARG551      0.1354
    130  NH2       32.1170  128.1360   84.2210 N.pl3 551  ARG551      0.1354
    131  N         32.0460  119.4800   89.2420 N.3   616  ARG616     -0.1245
    132  CA        31.0480  118.9920   88.2680 C.3   616  ARG616      0.1563
    133  C         31.0480  117.4640   88.2460 C.2   616  ARG616      0.2260
    134  O         32.1150  116.8320   88.1370 O.2   616  ARG616     -0.2867
    135  CB        31.3130  119.4770   86.8490 C.3   616  ARG616      0.0307
    136  CG        31.0610  120.9150   86.5630 C.3   616  ARG616      0.0489
    137  CD        31.8060  121.2870   85.3450 C.3   616  ARG616      0.2205
    138  NE        31.8310  122.6990   85.0140 N.pl3 616  ARG616     -0.0865
    139  CZ        32.8220  123.5230   85.3400 C.cat 616  ARG616      0.5346
    140  NH1       33.8590  123.0890   86.0580 N.pl3 616  ARG616      0.1354
    141  NH2       32.7820  124.7860   84.9430 N.pl3 616  ARG616      0.1354
    142  N         30.3190  115.3700   85.9240 N.3   618  TRP618     -0.1227
    143  CA        30.9970  114.7400   84.8060 C.3   618  TRP618      0.1737
    144  C         32.5060  114.9240   84.8440 C.2   618  TRP618      0.2595
    145  O         33.2390  114.1440   84.2240 O.2   618  TRP618     -0.2718
    146  CB        30.3920  115.1100   83.4400 C.3   618  TRP618      0.0564
    147  CG        30.7670  116.4360   82.8910 C.ar  618  TRP618      0.0003
    148  CD1       30.0490  117.6120   83.0030 C.ar  618  TRP618      0.0946
    149  CD2       31.9340  116.7530   82.1130 C.ar  618  TRP618      0.0152
    150  NE1       30.7160  118.6320   82.3600 N.ar  618  TRP618     -0.2442
    151  CE2       31.8630  118.1310   81.7900 C.ar  618  TRP618      0.0810
    152  CE3       33.0320  116.0130   81.6500 C.ar  618  TRP618      0.0012
    153  CZ2       32.8380  118.7700   81.0230 C.ar  618  TRP618      0.0191
    154  CZ3       34.0240  116.6520   80.8970 C.ar  618  TRP618      0.0001
    155  CH2       33.9200  118.0130   80.5890 C.ar  618  TRP618      0.0015
    156  N         32.9800  115.9380   85.5540 N.am  619  HIS619     -0.1975
    157  CA        34.4210  116.1100   85.6940 C.3   619  HIS619      0.1656
    158  C         34.9940  114.9690   86.5470 C.2   619  HIS619      0.2291
    159  O         35.9870  114.3380   86.1660 O.2   619  HIS619     -0.2864
    160  CB        34.7480  117.4690   86.2990 C.3   619  HIS619      0.0771
    161  CG        34.8180  118.5820   85.3000 C.ar  619  HIS619      0.0820
    162  ND1       35.5340  119.7400   85.5300 N.ar  619  HIS619     -0.2267
    163  CD2       34.2580  118.7200   84.0720 C.ar  619  HIS619      0.1154
    164  CE1       35.4100  120.5420   84.4840 C.ar  619  HIS619      0.1986
    165  NE2       34.6530  119.9400   83.5820 N.ar  619  HIS619     -0.2212
@<TRIPOS>BOND
     1    74    75    1
     2    74    71    1
     3    73    72    2
     4    76    75   ar
     5    76    78   ar
     6    72    71    1
     7    75    77   ar
     8    78    80   ar
     9    98    97    2
    10    59    58    2
    11    97    96    1
    12    56    57    1
    13    71    70    1
    14    77    79   ar
    15    48    49    1
    16    80    79   ar
    17    52    49    1
    18    52    53    1
    19    49    50    1
    20    58    57    1
    21    83    84    2
    22    83    82    1
    23    57    60    1
    24    96    99    1
    25    96    95    1
    26    53    54   ar
    27    53    55   ar
    28    99   100    1
    29    60    61    1
    30    81    82    1
    31    50    51    2
    32    82    85    1
    33    85    86    1
    34   100   101   ar
    35   100   102   ar
    36    66    63   ar
    37    66    68   ar
    38    61    63   ar
    39    61    62   ar
    40    63    65   ar
    41    91    88   ar
    42    91    93   ar
    43    86    88   ar
    44    86    87   ar
    45    68    69   ar
    46    62    64   ar
    47    88    90   ar
    48    93    94   ar
    49    87    89   ar
    50    65    64   ar
    51    65    67   ar
    52    69    67   ar
    53    90    89   ar
    54    90    92   ar
    55    94    92   ar
    56    24    21    1
    57    46    45   ar
    58    21    20    1
    59    21    22    1
    60    20    13   am
    61    23    22    2
    62    45    44    1
    63    45    47   ar
    64    44    43    1
    65    43    40    1
    66    22    25   am
    67    39    40    1
    68    40    41    1
    69    13    14    2
    70    13    12    1
    71   155   154   ar
    72   155   153   ar
    73   154   152   ar
    74    12    15    1
    75    12    11    1
    76    25    31    1
    77    25    26    1
    78   153   151   ar
    79   110   108   ar
    80    15    16    1
    81    41    42    2
    82    31    30    1
    83   108   107    1
    84   108   109   ar
    85   152   149   ar
    86   107   104    1
    87   151   149   ar
    88   151   150   ar
    89    36    38    1
    90    36    37    1
    91    36    33    1
    92    26    27    1
    93    26    29    1
    94    34    33    1
    95    34    35    2
    96   149   147   ar
    97   150   148   ar
    98    16    17    1
    99    33    32    1
   100   106   105    2
   101    27    28    2
   102   129   128    1
   103    30    29    1
   104   147   148   ar
   105   147   146    1
   106   103   104    1
   107   104   105    1
   108    17    18   ar
   109    17    19   ar
   110   146   143    1
   111   165   163   ar
   112   165   164   ar
   113   128   127    2
   114   128   130    1
   115     9     7   ar
   116     9    10   ar
   117   127   126    1
   118   163   161   ar
   119   145   144    2
   120     7     6   ar
   121   164   162   ar
   122    10     8   ar
   123   143   144    1
   124   143   142    1
   125   144   156   am
   126   122   121    1
   127   122   123    2
   128   126   125    1
   129   141   139    1
   130   138   139    2
   131   138   137    1
   132   121   124    1
   133   121   120    1
   134   161   162   ar
   135   161   160    1
   136   139   140    1
   137   137   136    1
   138     6     8   ar
   139     6     5    1
   140   119   117   ar
   141   156   157    1
   142   157   160    1
   143   157   158    1
   144   124   125    1
   145   159   158    2
   146     5     2    1
   147   117   118   ar
   148   117   116    1
   149   136   135    1
   150   115   116    1
   151   115   112    1
   152   135   132    1
   153     2     3    1
   154     2     1    1
   155   112   113    1
   156   112   111    1
   157   113   114    2
   158     4     3    2
   159   134   133    2
   160   133   132    1
   161   132   131    1
