@<TRIPOS>MOLECULE
tmp/1l2iA01.pdb
 186 175 0 0 0
SMALL
GASTEIGER

@<TRIPOS>ATOM
      1  N         -0.7450    1.0470  -12.3590 N.3    39  MET39      -0.1245
      2  CA        -0.2470   -0.1630  -11.7090 C.3    39  MET39       0.1570
      3  C          0.5080   -1.0190  -12.7170 C.2    39  MET39       0.2261
      4  O          1.4710   -1.7000  -12.3700 O.2    39  MET39      -0.2867
      5  CB        -1.4010   -0.9730  -11.1100 C.3    39  MET39       0.0387
      6  CG        -2.0630   -0.3110   -9.9110 C.3    39  MET39       0.0595
      7  SD        -0.8820    0.0930   -8.5910 S.3    39  MET39      -0.1393
      8  CE        -0.5540   -1.5430   -7.9150 C.3    39  MET39       0.0692
      9  N          3.9860    0.6240  -13.0440 N.3    42  LEU42      -0.1231
     10  CA         4.7580    0.4070  -11.8210 C.3    42  LEU42       0.1693
     11  C          5.1150   -1.0500  -11.5540 C.2    42  LEU42       0.2592
     12  O          6.2240   -1.3390  -11.1070 O.2    42  LEU42      -0.2718
     13  CB         4.0150    0.9830  -10.6120 C.3    42  LEU42       0.0284
     14  CG         3.7990    2.5010  -10.5980 C.3    42  LEU42       0.0019
     15  CD1        3.0500    2.8870   -9.3370 C.3    42  LEU42       0.0001
     16  CD2        5.1370    3.2310  -10.6640 C.3    42  LEU42       0.0001
     17  N          4.1880   -1.9700  -11.8090 N.am   43  THR43      -0.1953
     18  CA         4.4760   -3.3820  -11.5840 C.3    43  THR43       0.1897
     19  C          5.4890   -3.8820  -12.6050 C.2    43  THR43       0.2313
     20  O          6.3270   -4.7340  -12.2880 O.2    43  THR43      -0.2863
     21  CB         3.2060   -4.2650  -11.6570 C.3    43  THR43       0.1794
     22  OG1        2.5330   -4.0410  -12.9000 O.3    43  THR43      -0.2208
     23  CG2        2.2690   -3.9550  -10.4880 C.3    43  THR43       0.0378
     24  N          7.8900   -2.1010  -13.9300 N.3    45  LEU45      -0.1231
     25  CA         9.1760   -1.5940  -13.4450 C.3    45  LEU45       0.1693
     26  C          9.6790   -2.4410  -12.2710 C.2    45  LEU45       0.2591
     27  O         10.8150   -2.9110  -12.2840 O.2    45  LEU45      -0.2718
     28  CB         9.0390   -0.1380  -12.9890 C.3    45  LEU45       0.0284
     29  CG        10.3010    0.5460  -12.4570 C.3    45  LEU45       0.0019
     30  CD1       11.3240    0.7330  -13.5860 C.3    45  LEU45       0.0001
     31  CD2        9.9160    1.8930  -11.8620 C.3    45  LEU45       0.0001
     32  N          8.8280   -2.6500  -11.2650 N.am   46  ALA46      -0.1980
     33  CA         9.2220   -3.4250  -10.0810 C.3    46  ALA46       0.1597
     34  C          9.7140   -4.8220  -10.4280 C.2    46  ALA46       0.2287
     35  O         10.6930   -5.3130   -9.8520 O.2    46  ALA46      -0.2864
     36  CB         8.0490   -3.5160   -9.0830 C.3    46  ALA46       0.0319
     37  N         13.1440   -4.5540  -11.7410 N.3    49  GLU49      -0.1245
     38  CA        14.0090   -4.1590  -10.6340 C.3    49  GLU49       0.1567
     39  C         14.3390   -5.3420   -9.7170 C.2    49  GLU49       0.2260
     40  O         15.4540   -5.4490   -9.2020 O.2    49  GLU49      -0.2867
     41  CB        13.3470   -3.0410   -9.8140 C.3    49  GLU49       0.0388
     42  CG        13.4260   -1.6630  -10.4710 C.3    49  GLU49       0.1160
     43  CD        12.8850   -0.5480   -9.5810 C.2    49  GLU49       0.3649
     44  OE1       11.6600   -0.3050   -9.5920 O.co2  49  GLU49      -0.2457
     45  OE2       13.6900    0.0830   -8.8650 O.co2  49  GLU49      -0.2457
     46  N         12.3330   -7.5580    0.0570 N.3    79  TRP79      -0.1227
     47  CA        12.2500   -6.9480   -1.2720 C.3    79  TRP79       0.1737
     48  C         11.5480   -5.5970   -1.3920 C.2    79  TRP79       0.2595
     49  O         12.0910   -4.6920   -2.0140 O.2    79  TRP79      -0.2718
     50  CB        11.6530   -7.9170   -2.3050 C.3    79  TRP79       0.0564
     51  CG        10.1860   -8.2130   -2.1670 C.ar   79  TRP79       0.0003
     52  CD1        9.6130   -9.2050   -1.4200 C.ar   79  TRP79       0.0946
     53  CD2        9.1050   -7.5340   -2.8290 C.ar   79  TRP79       0.0152
     54  NE1        8.2450   -9.1860   -1.5780 N.ar   79  TRP79      -0.2442
     55  CE2        7.9080   -8.1740   -2.4380 C.ar   79  TRP79       0.0810
     56  CE3        9.0360   -6.4490   -3.7170 C.ar   79  TRP79       0.0012
     57  CZ2        6.6470   -7.7650   -2.9050 C.ar   79  TRP79       0.0191
     58  CZ3        7.7780   -6.0390   -4.1830 C.ar   79  TRP79       0.0001
     59  CH2        6.6020   -6.7010   -3.7720 C.ar   79  TRP79       0.0015
     60  N         10.3630   -5.4450   -0.8010 N.am   80  LEU80      -0.1980
     61  CA         9.6410   -4.1760   -0.9200 C.3    80  LEU80       0.1596
     62  C         10.3440   -3.0610   -0.1440 C.2    80  LEU80       0.2287
     63  O         10.3540   -1.9180   -0.5810 O.2    80  LEU80      -0.2864
     64  CB         8.1940   -4.3230   -0.4430 C.3    80  LEU80       0.0297
     65  CG         7.2590   -3.1320   -0.7140 C.3    80  LEU80       0.0022
     66  CD1        7.3560   -2.6970   -2.1730 C.3    80  LEU80       0.0001
     67  CD2        5.8260   -3.5220   -0.3700 C.3    80  LEU80       0.0001
     68  N         13.0100   -1.9180   -2.3950 N.3    83  LEU83      -0.1231
     69  CA        12.4980   -1.1380   -3.5150 C.3    83  LEU83       0.1693
     70  C         12.1800    0.2710   -3.0160 C.2    83  LEU83       0.2591
     71  O         12.5420    1.2540   -3.6500 O.2    83  LEU83      -0.2718
     72  CB        11.2210   -1.7640   -4.0900 C.3    83  LEU83       0.0284
     73  CG        11.3440   -3.0170   -4.9660 C.3    83  LEU83       0.0019
     74  CD1        9.9570   -3.3670   -5.5170 C.3    83  LEU83       0.0001
     75  CD2       12.3140   -2.7610   -6.1150 C.3    83  LEU83       0.0001
     76  N         11.5200    0.3620   -1.8630 N.am   84  MET84      -0.1979
     77  CA        11.1420    1.6590   -1.3140 C.3    84  MET84       0.1605
     78  C         12.2990    2.5710   -0.9440 C.2    84  MET84       0.2287
     79  O         12.2600    3.7630   -1.2490 O.2    84  MET84      -0.2864
     80  CB        10.2270    1.4810   -0.1030 C.3    84  MET84       0.0413
     81  CG         8.8950    0.8190   -0.4420 C.3    84  MET84       0.0598
     82  SD         7.8060    0.7040    0.9860 S.3    84  MET84      -0.1393
     83  CE         6.1560    0.7820    0.1800 C.3    84  MET84       0.0692
     84  N         13.8250    3.9990   -3.9890 N.3    87  LEU87      -0.1245
     85  CA        12.9490    5.0360   -4.5220 C.3    87  LEU87       0.1561
     86  C         13.1080    6.3310   -3.7320 C.2    87  LEU87       0.2260
     87  O         13.1680    7.4170   -4.3070 O.2    87  LEU87      -0.2867
     88  CB        11.4910    4.5850   -4.4460 C.3    87  LEU87       0.0270
     89  CG        10.4510    5.6680   -4.7630 C.3    87  LEU87       0.0019
     90  CD1       10.6480    6.1730   -6.1900 C.3    87  LEU87       0.0001
     91  CD2        9.0500    5.0780   -4.5810 C.3    87  LEU87       0.0001
     92  N         16.4340    7.9470   -4.7610 N.3    90  ARG90      -0.1245
     93  CA        16.4000    8.5840   -6.0790 C.3    90  ARG90       0.1563
     94  C         15.5960    9.8810   -6.0480 C.2    90  ARG90       0.2260
     95  O         15.8260   10.7770   -6.8580 O.2    90  ARG90      -0.2867
     96  CB        15.7470    7.6680   -7.1270 C.3    90  ARG90       0.0307
     97  CG        16.4270    6.3430   -7.3710 C.3    90  ARG90       0.0489
     98  CD        15.9250    5.7030   -8.6650 C.3    90  ARG90       0.2205
     99  NE        14.5250    5.2600   -8.6220 N.pl3  90  ARG90      -0.0865
    100  CZ        14.1090    4.1310   -8.0520 C.cat  90  ARG90       0.5346
    101  NH1       14.9790    3.3160   -7.4620 N.pl3  90  ARG90       0.1354
    102  NH2       12.8260    3.7990   -8.1000 N.pl3  90  ARG90       0.1354
    103  N         10.3100    7.4570   -9.8000 N.3   100  PHE100     -0.1241
    104  CA        10.2590    6.0140  -10.0330 C.3   100  PHE100      0.1605
    105  C         11.2820    5.5960  -11.0730 C.2   100  PHE100      0.2264
    106  O         11.8590    4.5160  -10.9940 O.2   100  PHE100     -0.2867
    107  CB         8.8540    5.6040  -10.4760 C.3   100  PHE100      0.0534
    108  CG         7.8850    5.5000   -9.3460 C.ar  100  PHE100     -0.0203
    109  CD1        7.8080    4.3360   -8.5920 C.ar  100  PHE100     -0.0042
    110  CD2        7.0820    6.5800   -9.0000 C.ar  100  PHE100     -0.0042
    111  CE1        6.9460    4.2500   -7.5080 C.ar  100  PHE100     -0.0003
    112  CE2        6.2160    6.5040   -7.9160 C.ar  100  PHE100     -0.0003
    113  CZ         6.1490    5.3340   -7.1680 C.ar  100  PHE100     -0.0000
    114  N         -3.4830    4.4170   -2.6980 N.3   116  MET116     -0.1245
    115  CA        -2.0800    4.6940   -2.9950 C.3   116  MET116      0.1570
    116  C         -1.5330    6.0190   -2.4690 C.2   116  MET116      0.2261
    117  O         -0.3690    6.0950   -2.0820 O.2   116  MET116     -0.2867
    118  CB        -1.8490    4.6260   -4.5070 C.3   116  MET116      0.0387
    119  CG        -0.3870    4.6770   -4.9240 C.3   116  MET116      0.0595
    120  SD         0.5580    3.2150   -4.4030 S.3   116  MET116     -0.1393
    121  CE         0.3080    2.1270   -5.8120 C.3   116  MET116      0.0692
    122  N          0.3200    5.9060    0.7880 N.3   119  ILE119     -0.1231
    123  CA         1.6590    5.3530    0.7070 C.3   119  ILE119      0.1692
    124  C          2.6160    6.3720    0.0880 C.2   119  ILE119      0.2592
    125  O          3.7550    6.4960    0.5330 O.2   119  ILE119     -0.2718
    126  CB         1.6590    4.0440   -0.1010 C.3   119  ILE119      0.0266
    127  CG1        0.7270    3.0380    0.5870 C.3   119  ILE119      0.0019
    128  CG2        3.0740    3.4800   -0.1900 C.3   119  ILE119      0.0020
    129  CD1        0.5140    1.7450   -0.1630 C.3   119  ILE119      0.0001
    130  N          2.1530    7.1110   -0.9220 N.am  120  PHE120     -0.1976
    131  CA         2.9850    8.1330   -1.5620 C.3   120  PHE120      0.1639
    132  C          3.4110    9.1970   -0.5520 C.2   120  PHE120      0.2290
    133  O          4.5490    9.6720   -0.5870 O.2   120  PHE120     -0.2864
    134  CB         2.2410    8.8360   -2.7140 C.3   120  PHE120      0.0560
    135  CG         2.3870    8.1660   -4.0620 C.ar  120  PHE120     -0.0200
    136  CD1        2.2620    8.9150   -5.2310 C.ar  120  PHE120     -0.0042
    137  CD2        2.6100    6.7960   -4.1700 C.ar  120  PHE120     -0.0042
    138  CE1        2.3540    8.3140   -6.4860 C.ar  120  PHE120     -0.0003
    139  CE2        2.7030    6.1830   -5.4240 C.ar  120  PHE120     -0.0003
    140  CZ         2.5730    6.9440   -6.5820 C.ar  120  PHE120     -0.0000
    141  N          6.1810    7.9050    1.7350 N.3   123  LEU123     -0.1245
    142  CA         7.4050    7.8480    0.9430 C.3   123  LEU123      0.1561
    143  C          8.0280    9.2310    0.7770 C.2   123  LEU123      0.2260
    144  O          9.2500    9.3850    0.8690 O.2   123  LEU123     -0.2867
    145  CB         7.1090    7.2320   -0.4330 C.3   123  LEU123      0.0270
    146  CG         6.8660    5.7180   -0.4270 C.3   123  LEU123      0.0019
    147  CD1        6.2470    5.2750   -1.7390 C.3   123  LEU123      0.0001
    148  CD2        8.1830    4.9980   -0.1790 C.3   123  LEU123      0.0001
    149  N          2.4100   -1.3400    2.2600 N.3   207  GLY207     -0.1225
    150  CA         2.4300   -1.5030    0.8200 C.3   207  GLY207      0.1811
    151  C          2.0380   -2.9160    0.4470 C.2   207  GLY207      0.2280
    152  O          1.3080   -3.1330   -0.5180 O.2   207  GLY207     -0.2866
    153  N         -1.6970   -3.3570    0.7690 N.3   210  HIS210     -0.1226
    154  CA        -2.3350   -2.6730   -0.3430 C.3   210  HIS210      0.1752
    155  C         -2.1340   -3.4300   -1.6560 C.2   210  HIS210      0.2595
    156  O         -2.9980   -3.3990   -2.5350 O.2   210  HIS210     -0.2718
    157  CB        -1.7890   -1.2480   -0.4690 C.3   210  HIS210      0.0759
    158  CG        -2.3780   -0.4730   -1.6050 C.ar  210  HIS210      0.0818
    159  ND1       -1.8500   -0.4990   -2.8780 N.ar  210  HIS210     -0.2268
    160  CD2       -3.4610    0.3370   -1.6640 C.ar  210  HIS210      0.1154
    161  CE1       -2.5800    0.2640   -3.6720 C.ar  210  HIS210      0.1986
    162  NE2       -3.5640    0.7830   -2.9600 N.ar  210  HIS210     -0.2212
    163  N         -0.9990   -4.1100   -1.7860 N.am  211  LEU211     -0.1980
    164  CA        -0.7030   -4.8720   -2.9940 C.3   211  LEU211      0.1596
    165  C         -1.6110   -6.0900   -3.0940 C.2   211  LEU211      0.2287
    166  O         -2.0870   -6.4290   -4.1760 O.2   211  LEU211     -0.2864
    167  CB         0.7590   -5.3220   -3.0030 C.3   211  LEU211      0.0297
    168  CG         1.2280   -6.0860   -4.2440 C.3   211  LEU211      0.0022
    169  CD1        0.9410   -5.2650   -5.5000 C.3   211  LEU211      0.0001
    170  CD2        2.7170   -6.3860   -4.1250 C.3   211  LEU211      0.0001
    171  N         -4.9450   -4.8080   -4.3730 N.3   214  MET214     -0.1245
    172  CA        -5.0790   -4.5470   -5.8030 C.3   214  MET214      0.1570
    173  C         -5.1760   -5.8770   -6.5490 C.2   214  MET214      0.2261
    174  O         -5.8840   -5.9960   -7.5500 O.2   214  MET214     -0.2867
    175  CB        -3.8710   -3.7630   -6.3250 C.3   214  MET214      0.0387
    176  CG        -3.6490   -2.4090   -5.6650 C.3   214  MET214      0.0595
    177  SD        -5.1030   -1.3440   -5.7160 S.3   214  MET214     -0.1393
    178  CE        -5.1770   -0.9340   -7.4710 C.3   214  MET214      0.0692
    179  N          7.0430  -10.9200   -9.2750 N.3   226  LEU226     -0.1245
    180  CA         6.4060  -10.0010   -8.3390 C.3   226  LEU226      0.1561
    181  C          5.3030  -10.6920   -7.5400 C.2   226  LEU226      0.2260
    182  O          5.1580  -10.4540   -6.3400 O.2   226  LEU226     -0.2867
    183  CB         5.8210   -8.7960   -9.0810 C.3   226  LEU226      0.0270
    184  CG         5.1020   -7.7670   -8.2030 C.3   226  LEU226      0.0019
    185  CD1        6.0910   -7.1300   -7.2300 C.3   226  LEU226      0.0001
    186  CD2        4.4640   -6.7070   -9.0790 C.3   226  LEU226      0.0001
@<TRIPOS>BOND
     1    24    25    1
     2    30    29    1
     3    25    28    1
     4    25    26    1
     5     9    10    1
     6    28    29    1
     7    22    21    1
     8     3     4    2
     9     3     2    1
    10    19    20    2
    11    19    18    1
    12    29    31    1
    13     1     2    1
    14    27    26    2
    15    26    32   am
    16    10    11    1
    17    10    13    1
    18    17    18    1
    19    17    11   am
    20    37    38    1
    21     2     5    1
    22    21    18    1
    23    21    23    1
    24    11    12    2
    25    32    33    1
    26     5     6    1
    27   105   106    2
    28   105   104    1
    29    16    14    1
    30    38    41    1
    31    38    39    1
    32    13    14    1
    33    14    15    1
    34   107   104    1
    35   107   108    1
    36    42    41    1
    37    42    43    1
    38    34    33    1
    39    34    35    2
    40    33    36    1
    41   104   103    1
    42     6     7    1
    43    39    40    2
    44    44    43   ar
    45    43    45   ar
    46   108   110   ar
    47   108   109   ar
    48   179   180    1
    49   183   180    1
    50   183   184    1
    51   186   184    1
    52   110   112   ar
    53    98    99    1
    54    98    97    1
    55    99   100    2
    56   109   111   ar
    57     7     8    1
    58   180   181    1
    59   184   185    1
    60   102   100    1
    61   100   101    1
    62   112   113   ar
    63   174   173    2
    64   181   182    2
    65   111   113   ar
    66   178   177    1
    67    97    96    1
    68    96    93    1
    69    95    94    2
    70   140   138   ar
    71   140   139   ar
    72   173   172    1
    73   138   136   ar
    74   175   172    1
    75   175   176    1
    76    90    89    1
    77    75    73    1
    78    93    94    1
    79    93    92    1
    80   121   120    1
    81   172   171    1
    82   177   176    1
    83    74    73    1
    84   169   168    1
    85   139   137   ar
    86   136   135   ar
    87    73    72    1
    88   119   118    1
    89   119   120    1
    90    89    91    1
    91    89    88    1
    92    85    88    1
    93    85    84    1
    94    85    86    1
    95   118   115    1
    96    87    86    2
    97   168   170    1
    98   168   167    1
    99    58    59   ar
   100    58    56   ar
   101   166   165    2
   102   137   135   ar
   103    72    69    1
   104   135   134    1
   105    59    57   ar
   106    56    53   ar
   107   161   162   ar
   108   161   159   ar
   109    71    70    2
   110    69    70    1
   111    69    68    1
   112   165   164    1
   113    70    76   am
   114   167   164    1
   115   115   114    1
   116   115   116    1
   117   164   163    1
   118   162   160   ar
   119    57    55   ar
   120   159   158   ar
   121    53    55   ar
   122    53    51   ar
   123   134   131    1
   124   156   155    2
   125   116   117    2
   126    55    54   ar
   127    50    51    1
   128    50    47    1
   129    66    65    1
   130    51    52   ar
   131    49    48    2
   132    76    77    1
   133   163   155   am
   134   147   146    1
   135   160   158   ar
   136   155   154    1
   137   158   157    1
   138    54    52   ar
   139   131   130    1
   140   131   132    1
   141    48    47    1
   142    48    60   am
   143    77    78    1
   144    77    80    1
   145    47    46    1
   146    79    78    2
   147   130   124   am
   148    61    60    1
   149    61    64    1
   150    61    62    1
   151    65    64    1
   152    65    67    1
   153   133   132    2
   154    63    62    2
   155   152   151    2
   156   157   154    1
   157    81    80    1
   158    81    82    1
   159   145   146    1
   160   145   142    1
   161   146   148    1
   162   154   153    1
   163   128   126    1
   164   129   127    1
   165   126   127    1
   166   126   123    1
   167   124   125    2
   168   124   123    1
   169    83    82    1
   170   151   150    1
   171   123   122    1
   172   143   144    2
   173   143   142    1
   174   150   149    1
   175   142   141    1
