@<TRIPOS>MOLECULE
tmp/1l2jB00.pdb
 185 174 0 0 0
SMALL
GASTEIGER

@<TRIPOS>ATOM
      1  N         16.7430   70.7790   19.4950 N.3    28  MET28      -0.1245
      2  CA        17.0470   69.9620   20.6740 C.3    28  MET28       0.1570
      3  C         18.3320   70.4210   21.3470 C.2    28  MET28       0.2261
      4  O         18.4620   70.3580   22.5690 O.2    28  MET28      -0.2867
      5  CB        17.2170   68.4940   20.2860 C.3    28  MET28       0.0387
      6  CG        15.9530   67.8070   19.8450 C.3    28  MET28       0.0595
      7  SD        14.8210   67.5540   21.2310 S.3    28  MET28      -0.1393
      8  CE        15.6240   66.1500   22.0760 C.3    28  MET28       0.0692
      9  N         17.3780   73.7350   23.2810 N.3    31  LEU31      -0.1231
     10  CA        16.5580   73.3850   24.4260 C.3    31  LEU31       0.1693
     11  C         17.4160   72.6720   25.4720 C.2    31  LEU31       0.2592
     12  O         17.4310   73.0710   26.6440 O.2    31  LEU31      -0.2718
     13  CB        15.3760   72.5040   23.9990 C.3    31  LEU31       0.0284
     14  CG        14.3640   73.1200   23.0190 C.3    31  LEU31       0.0019
     15  CD1       13.1640   72.1830   22.8840 C.3    31  LEU31       0.0001
     16  CD2       13.9020   74.4780   23.5050 C.3    31  LEU31       0.0001
     17  N         18.1390   71.6370   25.0450 N.am   32  THR32      -0.1953
     18  CA        18.9920   70.8850   25.9530 C.3    32  THR32       0.1897
     19  C         19.9550   71.8410   26.6380 C.2    32  THR32       0.2313
     20  O         20.1870   71.7690   27.8440 O.2    32  THR32      -0.2863
     21  CB        19.7930   69.8080   25.2000 C.3    32  THR32       0.1794
     22  OG1       18.8850   68.8640   24.6190 O.3    32  THR32      -0.2208
     23  CG2       20.7200   69.0620   26.1530 C.3    32  THR32       0.0378
     24  N         19.5270   74.9860   27.2360 N.3    34  LEU34      -0.1231
     25  CA        18.7530   75.7680   28.1940 C.3    34  LEU34       0.1693
     26  C         18.4210   74.9120   29.4090 C.2    34  LEU34       0.2591
     27  O         18.6510   75.3170   30.5520 O.2    34  LEU34      -0.2718
     28  CB        17.4590   76.2860   27.5590 C.3    34  LEU34       0.0284
     29  CG        16.5730   77.1440   28.4780 C.3    34  LEU34       0.0019
     30  CD1       17.2880   78.4510   28.8410 C.3    34  LEU34       0.0001
     31  CD2       15.2470   77.4320   27.7790 C.3    34  LEU34       0.0001
     32  N         17.8840   73.7240   29.1490 N.am   35  ALA35      -0.1980
     33  CA        17.5220   72.7920   30.2020 C.3    35  ALA35       0.1597
     34  C         18.6660   72.6410   31.2060 C.2    35  ALA35       0.2287
     35  O         18.4650   72.7570   32.4140 O.2    35  ALA35      -0.2864
     36  CB        17.1790   71.4460   29.5980 C.3    35  ALA35       0.0319
     37  N         19.0710   75.6550   33.2880 N.3    38  GLU38      -0.1245
     38  CA        18.0010   75.7970   34.2520 C.3    38  GLU38       0.1567
     39  C         18.0740   74.8110   35.3920 C.2    38  GLU38       0.2260
     40  O         17.7470   75.1500   36.5320 O.2    38  GLU38      -0.2867
     41  CB        16.6610   75.6930   33.5530 C.3    38  GLU38       0.0388
     42  CG        16.3720   76.9100   32.7190 C.3    38  GLU38       0.1160
     43  CD        15.0330   76.8280   32.0370 C.2    38  GLU38       0.3649
     44  OE1       14.8030   75.8430   31.2980 O.co2  38  GLU38      -0.2457
     45  OE2       14.2120   77.7500   32.2420 O.co2  38  GLU38      -0.2457
     46  N         12.3780   67.3770   38.2390 N.3    68  TRP68      -0.1227
     47  CA        12.9420   68.3170   37.2900 C.3    68  TRP68       0.1737
     48  C         12.0500   68.5750   36.0490 C.2    68  TRP68       0.2595
     49  O         11.8690   69.7230   35.6370 O.2    68  TRP68      -0.2718
     50  CB        14.3590   67.8630   36.8860 C.3    68  TRP68       0.0564
     51  CG        14.4110   66.7150   35.9570 C.ar   68  TRP68       0.0003
     52  CD1       14.4270   65.3880   36.2870 C.ar   68  TRP68       0.0946
     53  CD2       14.3280   66.7880   34.5300 C.ar   68  TRP68       0.0152
     54  NE1       14.3450   64.6260   35.1400 N.ar   68  TRP68      -0.2442
     55  CE2       14.2840   65.4610   34.0460 C.ar   68  TRP68       0.0810
     56  CE3       14.2810   67.8470   33.6050 C.ar   68  TRP68       0.0012
     57  CZ2       14.1850   65.1630   32.6740 C.ar   68  TRP68       0.0191
     58  CZ3       14.1800   67.5550   32.2470 C.ar   68  TRP68       0.0001
     59  CH2       14.1370   66.2180   31.7950 C.ar   68  TRP68       0.0015
     60  N         11.4640   67.5270   35.4760 N.am   69  MET69      -0.1979
     61  CA        10.6080   67.6940   34.2980 C.3    69  MET69       0.1605
     62  C          9.4560   68.6240   34.6010 C.2    69  MET69       0.2287
     63  O          9.2140   69.6250   33.9130 O.2    69  MET69      -0.2864
     64  CB        10.0470   66.3360   33.8670 C.3    69  MET69       0.0413
     65  CG         9.1240   66.3750   32.6430 C.3    69  MET69       0.0598
     66  SD         9.9990   66.8160   31.1320 S.3    69  MET69      -0.1393
     67  CE        10.5830   65.1170   30.6520 C.3    69  MET69       0.0692
     68  N         10.4820   72.1440   35.2960 N.3    72  LEU72      -0.1231
     69  CA        10.8510   72.8600   34.0800 C.3    72  LEU72       0.1693
     70  C          9.5870   73.2560   33.3600 C.2    72  LEU72       0.2591
     71  O          9.4670   74.3790   32.8710 O.2    72  LEU72      -0.2718
     72  CB        11.7160   72.0040   33.1520 C.3    72  LEU72       0.0284
     73  CG        13.2450   71.9560   33.3080 C.3    72  LEU72       0.0019
     74  CD1       13.7910   71.0790   32.1880 C.3    72  LEU72       0.0001
     75  CD2       13.8750   73.3420   33.2180 C.3    72  LEU72       0.0001
     76  N          8.6370   72.3360   33.3110 N.am   73  MET73      -0.1979
     77  CA         7.3720   72.6340   32.6550 C.3    73  MET73       0.1605
     78  C          6.6340   73.8150   33.3090 C.2    73  MET73       0.2287
     79  O          6.2020   74.7330   32.6210 O.2    73  MET73      -0.2864
     80  CB         6.4930   71.3910   32.6420 C.3    73  MET73       0.0413
     81  CG         7.1080   70.2470   31.8700 C.3    73  MET73       0.0598
     82  SD         5.9260   68.9560   31.5400 S.3    73  MET73      -0.1393
     83  CE         6.5790   68.2540   30.1070 C.3    73  MET73       0.0692
     84  N          8.1450   76.9910   32.3340 N.3    76  LEU76      -0.1245
     85  CA         7.9120   77.3510   30.9590 C.3    76  LEU76       0.1561
     86  C          6.6010   78.0790   30.9170 C.2    76  LEU76       0.2260
     87  O          6.5460   79.2330   30.5090 O.2    76  LEU76      -0.2867
     88  CB         7.8520   76.0990   30.0780 C.3    76  LEU76       0.0270
     89  CG         7.6240   76.2930   28.5680 C.3    76  LEU76       0.0019
     90  CD1        8.6390   77.2730   27.9780 C.3    76  LEU76       0.0001
     91  CD2        7.7300   74.9470   27.8760 C.3    76  LEU76       0.0001
     92  N          6.3400   81.7660   32.1570 N.3    79  ARG79      -0.1245
     93  CA         6.9600   82.7440   31.2740 C.3    79  ARG79       0.1563
     94  C          6.0360   82.9990   30.0840 C.2    79  ARG79       0.2260
     95  O          5.8860   84.1290   29.6070 O.2    79  ARG79      -0.2867
     96  CB         8.3050   82.2160   30.7750 C.3    79  ARG79       0.0307
     97  CG         9.3110   81.9540   31.8760 C.3    79  ARG79       0.0489
     98  CD        10.7020   81.7700   31.3050 C.3    79  ARG79       0.2205
     99  NE        10.8390   80.5270   30.5530 N.pl3  79  ARG79      -0.0865
    100  CZ        11.1790   79.3640   31.0950 C.cat  79  ARG79       0.5346
    101  NH1       11.4180   79.2860   32.3910 N.pl3  79  ARG79       0.1354
    102  NH2       11.2840   78.2810   30.3400 N.pl3  79  ARG79       0.1354
    103  N          5.2360   79.3320   23.5370 N.3    87  LEU87      -0.1245
    104  CA         5.9600   78.7750   24.6740 C.3    87  LEU87       0.1561
    105  C          7.2760   79.5210   24.7640 C.2    87  LEU87       0.2260
    106  O          8.2030   79.2620   24.0030 O.2    87  LEU87      -0.2867
    107  CB         6.2380   77.2860   24.4770 C.3    87  LEU87       0.0270
    108  CG         5.0340   76.3460   24.4090 C.3    87  LEU87       0.0019
    109  CD1        5.5290   74.9160   24.3260 C.3    87  LEU87       0.0001
    110  CD2        4.1640   76.5220   25.6370 C.3    87  LEU87       0.0001
    111  N         10.4390   79.7270   25.9710 N.3    89  PHE89      -0.1241
    112  CA        11.5370   79.0340   26.6240 C.3    89  PHE89       0.1605
    113  C         12.5490   80.0550   27.1270 C.2    89  PHE89       0.2264
    114  O         13.1430   79.8860   28.1920 O.2    89  PHE89      -0.2867
    115  CB        12.1940   78.0470   25.6650 C.3    89  PHE89       0.0534
    116  CG        11.3700   76.8090   25.4190 C.ar   89  PHE89      -0.0203
    117  CD1       10.2330   76.8580   24.6110 C.ar   89  PHE89      -0.0042
    118  CD2       11.7140   75.5970   26.0180 C.ar   89  PHE89      -0.0042
    119  CE1        9.4350   75.7020   24.4000 C.ar   89  PHE89      -0.0003
    120  CE2       10.9340   74.4290   25.8240 C.ar   89  PHE89      -0.0003
    121  CZ         9.7910   74.4820   25.0120 C.ar   89  PHE89      -0.0000
    122  N          6.8320   65.7300   20.0710 N.3   106  ILE106     -0.1245
    123  CA         6.9760   66.5850   21.2320 C.3   106  ILE106      0.1561
    124  C          5.7120   67.4430   21.2490 C.2   106  ILE106      0.2260
    125  O          5.3500   68.0400   22.2690 O.2   106  ILE106     -0.2867
    126  CB         8.2440   67.4680   21.1080 C.3   106  ILE106      0.0252
    127  CG1        8.7230   67.8720   22.5000 C.3   106  ILE106      0.0019
    128  CG2        7.9580   68.6900   20.2270 C.3   106  ILE106      0.0019
    129  CD1       10.0760   68.5290   22.5160 C.3   106  ILE106      0.0001
    130  N          3.2230   66.9920   24.0280 N.3   109  ILE109     -0.1231
    131  CA         3.6000   67.7030   25.2380 C.3   109  ILE109      0.1692
    132  C          3.2630   69.1840   25.0590 C.2   109  ILE109      0.2592
    133  O          2.6880   69.8140   25.9510 O.2   109  ILE109     -0.2718
    134  CB         5.1210   67.5300   25.5070 C.3   109  ILE109      0.0266
    135  CG1        5.4460   66.0490   25.7420 C.3   109  ILE109      0.0019
    136  CG2        5.5490   68.3510   26.7140 C.3   109  ILE109      0.0020
    137  CD1        5.5900   65.2160   24.4750 C.3   109  ILE109      0.0001
    138  N          3.6090   69.7260   23.8950 N.am  110  PHE110     -0.1976
    139  CA         3.3410   71.1250   23.5880 C.3   110  PHE110      0.1639
    140  C          1.8690   71.4640   23.7330 C.2   110  PHE110      0.2290
    141  O          1.5070   72.4970   24.3020 O.2   110  PHE110     -0.2864
    142  CB         3.8000   71.4390   22.1730 C.3   110  PHE110      0.0560
    143  CG         5.2670   71.7590   22.0710 C.ar  110  PHE110     -0.0200
    144  CD1        6.2360   70.8570   22.5380 C.ar  110  PHE110     -0.0042
    145  CD2        5.6830   72.9800   21.5220 C.ar  110  PHE110     -0.0042
    146  CE1        7.6160   71.1670   22.4630 C.ar  110  PHE110     -0.0003
    147  CE2        7.0540   73.3130   21.4340 C.ar  110  PHE110     -0.0003
    148  CZ         8.0280   72.4020   21.9090 C.ar  110  PHE110     -0.0000
    149  N          0.7480   71.4220   27.2980 N.3   113  LEU113     -0.1245
    150  CA         1.3130   72.5790   27.9610 C.3   113  LEU113      0.1561
    151  C          0.5630   73.8470   27.6050 C.2   113  LEU113      0.2260
    152  O          0.0310   74.5220   28.4940 O.2   113  LEU113     -0.2867
    153  CB         2.7920   72.7280   27.6240 C.3   113  LEU113      0.0270
    154  CG         3.6540   72.5010   28.8680 C.3   113  LEU113      0.0019
    155  CD1        3.7840   71.0100   29.1540 C.3   113  LEU113      0.0001
    156  CD2        5.0180   73.1130   28.6470 C.3   113  LEU113      0.0001
    157  N          6.2060   63.3490   28.9950 N.3   203  GLY203     -0.1225
    158  CA         7.5340   63.7660   28.6080 C.3   203  GLY203      0.1811
    159  C          8.6140   62.7950   29.0220 C.2   203  GLY203      0.2280
    160  O          9.5780   62.5950   28.2970 O.2   203  GLY203     -0.2866
    161  N          8.5110   59.6510   27.1090 N.3   206  HIS206     -0.1226
    162  CA         8.8930   60.0630   25.7740 C.3   206  HIS206      0.1752
    163  C         10.3980   59.8900   25.6810 C.2   206  HIS206      0.2595
    164  O         10.8930   59.3030   24.7280 O.2   206  HIS206     -0.2718
    165  CB         8.5330   61.5250   25.5470 C.3   206  HIS206      0.0759
    166  CG         8.7770   61.9970   24.1480 C.ar  206  HIS206      0.0818
    167  ND1        8.8450   63.3360   23.8170 N.ar  206  HIS206     -0.2268
    168  CD2        8.9400   61.3130   22.9900 C.ar  206  HIS206      0.1154
    169  CE1        9.0390   63.4540   22.5160 C.ar  206  HIS206      0.1986
    170  NE2        9.0990   62.2420   21.9910 N.ar  206  HIS206     -0.2212
    171  N         11.1190   60.4040   26.6750 N.am  207  LEU207     -0.1980
    172  CA        12.5750   60.2990   26.7040 C.3   207  LEU207      0.1596
    173  C         13.0120   58.8600   26.8980 C.2   207  LEU207      0.2287
    174  O         14.1990   58.5380   26.8010 O.2   207  LEU207     -0.2864
    175  CB        13.1660   61.1590   27.8220 C.3   207  LEU207      0.0297
    176  CG        13.1940   62.6750   27.5780 C.3   207  LEU207      0.0022
    177  CD1       13.8860   63.3720   28.7430 C.3   207  LEU207      0.0001
    178  CD2       13.9280   62.9830   26.2850 C.3   207  LEU207      0.0001
    179  N         19.3580   64.7870   28.8440 N.3   213  VAL213     -0.1245
    180  CA        19.2870   65.6670   30.0030 C.3   213  VAL213      0.1561
    181  C         19.4800   64.8610   31.2940 C.2   213  VAL213      0.2260
    182  O         19.9820   65.3690   32.2930 O.2   213  VAL213     -0.2867
    183  CB        17.9280   66.3880   30.0500 C.3   213  VAL213      0.0252
    184  CG1       17.9250   67.3850   31.1870 C.3   213  VAL213      0.0019
    185  CG2       17.6600   67.0930   28.7220 C.3   213  VAL213      0.0019
@<TRIPOS>BOND
     1     1     2    1
     2     6     5    1
     3     6     7    1
     4   122   123    1
     5   128   126    1
     6     5     2    1
     7     2     3    1
     8   126   123    1
     9   126   127    1
    10     7     8    1
    11   123   124    1
    12   124   125    2
    13     3     4    2
    14   147   145   ar
    15   147   148   ar
    16   145   143   ar
    17   148   146   ar
    18   170   169   ar
    19   170   168   ar
    20   143   142    1
    21   143   144   ar
    22   142   139    1
    23   146   144   ar
    24   127   129    1
    25   169   167   ar
    26    15    14    1
    27   168   166   ar
    28    14    16    1
    29    14    13    1
    30     9    10    1
    31   103   104    1
    32   139   140    1
    33   139   138    1
    34   140   141    2
    35   167   166   ar
    36   138   132   am
    37    13    10    1
    38   106   105    2
    39   130   131    1
    40   166   165    1
    41   109   108    1
    42   119   117   ar
    43   119   121   ar
    44   108   107    1
    45   108   110    1
    46    10    11    1
    47   137   135    1
    48   107   104    1
    49   117   116   ar
    50    22    21    1
    51   104   105    1
    52   164   163    2
    53   121   120   ar
    54    17    11   am
    55    17    18    1
    56   132   131    1
    57   132   133    2
    58    21    18    1
    59    21    23    1
    60   131   134    1
    61   116   115    1
    62   116   118   ar
    63    11    12    2
    64   134   135    1
    65   134   136    1
    66   165   162    1
    67   115   112    1
    68   163   162    1
    69   163   171   am
    70   162   161    1
    71   120   118   ar
    72    18    19    1
    73   111   112    1
    74   178   176    1
    75   112   113    1
    76    19    20    2
    77   171   172    1
    78   172   173    1
    79   172   175    1
    80   174   173    2
    81   113   114    2
    82    24    25    1
    83   149   150    1
    84    28    25    1
    85    28    29    1
    86   176   175    1
    87   176   177    1
    88   151   150    1
    89   151   152    2
    90   153   150    1
    91   153   154    1
    92    31    29    1
    93    91    89    1
    94    90    89    1
    95    25    26    1
    96   160   159    2
    97    29    30    1
    98    89    88    1
    99   158   157    1
   100   158   159    1
   101   156   154    1
   102   185   183    1
   103   179   180    1
   104   154   155    1
   105    32    26   am
   106    32    33    1
   107    26    27    2
   108    36    33    1
   109    95    94    2
   110   180   183    1
   111   180   181    1
   112   183   184    1
   113    88    85    1
   114    94    93    1
   115    83    82    1
   116    33    34    1
   117   102   100    1
   118    87    86    2
   119    99   100    2
   120    99    98    1
   121    67    66    1
   122    96    93    1
   123    96    97    1
   124    86    85    1
   125    85    84    1
   126   100   101    1
   127    66    65    1
   128    34    35    2
   129    93    92    1
   130   181   182    2
   131    44    43   ar
   132    98    97    1
   133    82    81    1
   134    59    58   ar
   135    59    57   ar
   136    81    80    1
   137    43    45   ar
   138    43    42    1
   139    74    73    1
   140    58    56   ar
   141    79    78    2
   142    80    77    1
   143    65    64    1
   144    77    78    1
   145    77    76    1
   146    57    55   ar
   147    42    41    1
   148    71    70    2
   149    72    73    1
   150    72    69    1
   151    75    73    1
   152    37    38    1
   153    76    70   am
   154    70    69    1
   155    41    38    1
   156    56    53   ar
   157    64    61    1
   158    63    62    2
   159    55    53   ar
   160    55    54   ar
   161    69    68    1
   162    38    39    1
   163    61    62    1
   164    61    60    1
   165    53    51   ar
   166    54    52   ar
   167    39    40    2
   168    60    48   am
   169    49    48    2
   170    51    52   ar
   171    51    50    1
   172    48    47    1
   173    50    47    1
   174    47    46    1
