@<TRIPOS>MOLECULE
tmp/1l2oA00.pdb
 88 83 0 0 0
SMALL
GASTEIGER

@<TRIPOS>ATOM
      1  N         -5.4720    1.3350    3.1060 N.3   169  GLU169     -0.1245
      2  CA        -6.5990    0.7250    2.4210 C.3   169  GLU169      0.1567
      3  C         -6.3890    1.0870    0.9590 C.2   169  GLU169      0.2260
      4  O         -5.2570    1.3250    0.5390 O.2   169  GLU169     -0.2867
      5  CB        -7.9330    1.2840    2.9330 C.3   169  GLU169      0.0388
      6  CG        -8.5780    0.4250    4.0220 C.3   169  GLU169      0.1160
      7  CD       -10.0430    0.7670    4.2860 C.2   169  GLU169      0.3649
      8  OE1      -10.7380    1.2290    3.3500 O.co2 169  GLU169     -0.2457
      9  OE2      -10.5030    0.5470    5.4330 O.co2 169  GLU169     -0.2457
     10  N         -5.1050   -7.0720    2.6670 N.3   436  PHE436     -0.1241
     11  CA        -6.1350   -8.0550    2.9240 C.3   436  PHE436      0.1605
     12  C         -7.4890   -7.4980    2.5270 C.2   436  PHE436      0.2264
     13  O         -8.0610   -6.6590    3.2230 O.2   436  PHE436     -0.2867
     14  CB        -6.1770   -8.4230    4.4040 C.3   436  PHE436      0.0534
     15  CG        -7.2070   -9.4620    4.7250 C.ar  436  PHE436     -0.0203
     16  CD1       -6.9230  -10.8140    4.5430 C.ar  436  PHE436     -0.0042
     17  CD2       -8.4950   -9.0850    5.1200 C.ar  436  PHE436     -0.0042
     18  CE1       -7.9190  -11.7860    4.7430 C.ar  436  PHE436     -0.0003
     19  CE2       -9.5020  -10.0420    5.3250 C.ar  436  PHE436     -0.0003
     20  CZ        -9.2140  -11.3980    5.1350 C.ar  436  PHE436     -0.0000
     21  N        -11.4210   -8.5340    1.5440 N.3   438  ILE438     -0.1245
     22  CA       -12.3200   -9.6690    1.6360 C.3   438  ILE438      0.1561
     23  C        -13.7080   -9.3240    1.0980 C.2   438  ILE438      0.2260
     24  O        -14.6160   -8.9820    1.8540 O.2   438  ILE438     -0.2867
     25  CB       -12.3950  -10.1730    3.0980 C.3   438  ILE438      0.0252
     26  CG1      -13.2850  -11.4090    3.1710 C.3   438  ILE438      0.0019
     27  CG2      -12.8960   -9.0690    4.0180 C.3   438  ILE438      0.0019
     28  CD1      -13.3210  -12.0670    4.5420 C.3   438  ILE438      0.0001
     29  N          2.0230   -9.8830    7.2730 N.3   457  GLN457     -0.1245
     30  CA         1.4690   -9.6710    8.6060 C.3   457  GLN457      0.1566
     31  C          2.2930  -10.3980    9.6600 C.2   457  GLN457      0.2260
     32  O          2.0860  -10.2180   10.8560 O.2   457  GLN457     -0.2867
     33  CB         0.0260  -10.1730    8.6550 C.3   457  GLN457      0.0367
     34  CG        -1.0360   -9.0970    8.8050 C.3   457  GLN457      0.0905
     35  CD        -1.1500   -8.5570   10.2240 C.2   457  GLN457      0.2608
     36  OE1       -0.9510   -9.2880   11.1990 O.2   457  GLN457     -0.2717
     37  NE2       -1.4960   -7.2750   10.3450 N.am  457  GLN457     -0.0878
     38  N         -5.2520  -13.7840    9.1640 N.3   553  TYR553     -0.1227
     39  CA        -5.0200  -12.9510   10.3220 C.3   553  TYR553      0.1736
     40  C         -6.1990  -12.0080   10.4990 C.2   553  TYR553      0.2595
     41  O         -6.7510  -11.8890   11.5910 O.2   553  TYR553     -0.2718
     42  CB        -3.7430  -12.1440   10.1320 C.3   553  TYR553      0.0548
     43  CG        -3.8400  -11.0570    9.0800 C.ar  553  TYR553     -0.0200
     44  CD1       -4.1960   -9.7500    9.4300 C.ar  553  TYR553     -0.0009
     45  CD2       -3.5560  -11.3310    7.7350 C.ar  553  TYR553     -0.0009
     46  CE1       -4.2600   -8.7340    8.4660 C.ar  553  TYR553      0.0417
     47  CE2       -3.6160  -10.3270    6.7550 C.ar  553  TYR553      0.0417
     48  CZ        -3.9650   -9.0280    7.1280 C.ar  553  TYR553      0.1957
     49  OH        -3.9910   -8.0140    6.1870 O.3   553  TYR553     -0.2866
     50  N         -6.5910  -11.3450    9.4170 N.am  554  ALA554     -0.1980
     51  CA        -7.6980  -10.4090    9.4850 C.3   554  ALA554      0.1597
     52  C         -8.9860  -11.1700    9.7190 C.2   554  ALA554      0.2287
     53  O        -10.0060  -10.5970   10.1070 O.2   554  ALA554     -0.2864
     54  CB        -7.7830   -9.6060    8.1990 C.3   554  ALA554      0.0319
     55  N        -12.4020    2.6480   11.9660 N.3   642  HIS642     -0.1241
     56  CA       -12.2400    1.3160   11.4120 C.3   642  HIS642      0.1621
     57  C        -10.8130    1.0150   11.0770 C.2   642  HIS642      0.2264
     58  O        -10.2840   -0.0300   11.4440 O.2   642  HIS642     -0.2867
     59  CB       -13.0980    1.1510   10.1590 C.3   642  HIS642      0.0745
     60  CG       -12.8650   -0.1380    9.4330 C.ar  642  HIS642      0.0817
     61  ND1      -12.7990   -1.3520   10.0810 N.ar  642  HIS642     -0.2268
     62  CD2      -12.7180   -0.4060    8.1130 C.ar  642  HIS642      0.1154
     63  CE1      -12.6230   -2.3140    9.1930 C.ar  642  HIS642      0.1986
     64  NE2      -12.5710   -1.7670    7.9910 N.ar  642  HIS642     -0.2212
     65  N         -8.2690    0.5370   13.8460 N.3   645  GLN645     -0.1231
     66  CA        -8.3990   -0.7140   14.6150 C.3   645  GLN645      0.1698
     67  C         -7.6850   -1.8790   13.9720 C.2   645  GLN645      0.2592
     68  O         -7.5770   -2.9610   14.5060 O.2   645  GLN645     -0.2718
     69  CB        -9.8680   -1.1120   14.7660 C.3   645  GLN645      0.0381
     70  CG       -10.7210   -0.1600   15.5560 C.3   645  GLN645      0.0905
     71  CD       -11.9790   -0.8380   16.0400 C.2   645  GLN645      0.2608
     72  OE1      -12.7010   -1.4720   15.2540 O.2   645  GLN645     -0.2717
     73  NE2      -12.2510   -0.7220   17.3400 N.am  645  GLN645     -0.0878
     74  N         -7.0880   -1.6270   12.8450 N.am  646  CYS646     -0.1970
     75  CA        -6.4790   -2.6940   12.0920 C.3   646  CYS646      0.1712
     76  C         -5.0060   -2.4540   11.8240 C.2   646  CYS646      0.2296
     77  O         -4.4110   -3.1200   10.9770 O.2   646  CYS646     -0.2864
     78  CB        -7.2150   -2.7620   10.7620 C.3   646  CYS646      0.0983
     79  SG        -7.0330   -4.2210    9.7790 S.3   646  CYS646     -0.0798
     80  N         -2.4580   -8.8270   19.8490 N.3   652  LYS652     -0.1245
     81  CA        -2.6540  -10.2270   19.5140 C.3   652  LYS652      0.1561
     82  C         -1.9830  -11.1270   20.5410 C.2   652  LYS652      0.2260
     83  O         -0.7610  -11.2560   20.5610 O.2   652  LYS652     -0.2867
     84  CB        -2.1310  -10.5080   18.1060 C.3   652  LYS652      0.0271
     85  CG        -2.8360   -9.7110   17.0190 C.3   652  LYS652      0.0035
     86  CD        -1.9640   -9.5690   15.7840 C.3   652  LYS652      0.0206
     87  CE        -1.5900  -10.9290   15.2140 C.3   652  LYS652      0.1093
     88  NZ        -1.8850  -11.0200   13.7580 N.3   652  LYS652     -0.1314
@<TRIPOS>BOND
     1     4     3    2
     2     3     2    1
     3    23    22    1
     4    23    24    2
     5    21    22    1
     6    22    25    1
     7     2     5    1
     8     2     1    1
     9    12    11    1
    10    12    13    2
    11    10    11    1
    12    11    14    1
    13     5     6    1
    14    25    26    1
    15    25    27    1
    16    26    28    1
    17     8     7   ar
    18     6     7    1
    19     7     9   ar
    20    14    15    1
    21    16    15   ar
    22    16    18   ar
    23    15    17   ar
    24    18    20   ar
    25    17    19   ar
    26    20    19   ar
    27    49    48    1
    28    47    48   ar
    29    47    45   ar
    30    48    46   ar
    31    29    30    1
    32    45    43   ar
    33    64    62   ar
    34    64    63   ar
    35    62    60   ar
    36    54    51    1
    37    46    44   ar
    38    30    33    1
    39    30    31    1
    40    33    34    1
    41    34    35    1
    42    43    44   ar
    43    43    42    1
    44    38    39    1
    45    63    61   ar
    46    50    51    1
    47    50    40   am
    48    60    61   ar
    49    60    59    1
    50    51    52    1
    51    31    32    2
    52    52    53    2
    53    79    78    1
    54    42    39    1
    55    59    56    1
    56    35    37   am
    57    35    36    2
    58    39    40    1
    59    40    41    2
    60    78    75    1
    61    77    76    2
    62    57    56    1
    63    57    58    2
    64    56    55    1
    65    76    75    1
    66    75    74    1
    67    74    67   am
    68    88    87    1
    69    65    66    1
    70    67    68    2
    71    67    66    1
    72    66    69    1
    73    69    70    1
    74    87    86    1
    75    72    71    2
    76    70    71    1
    77    86    85    1
    78    71    73   am
    79    85    84    1
    80    84    81    1
    81    81    80    1
    82    81    82    1
    83    82    83    2
