@<TRIPOS>MOLECULE
tmp/1l2sA01.pdb
 76 72 0 0 0
SMALL
GASTEIGER

@<TRIPOS>ATOM
      1  N         47.7590   -2.4220   12.2950 N.3    75  ILE75      -0.1231
      2  CA        48.9510   -1.7950   12.8620 C.3    75  ILE75       0.1692
      3  C         49.8970   -2.9120   13.2930 C.2    75  ILE75       0.2591
      4  O         51.0900   -2.8830   12.9670 O.2    75  ILE75      -0.2718
      5  CB        48.6040   -0.9050   14.0850 C.3    75  ILE75       0.0266
      6  CG1       47.6720    0.2150   13.6520 C.3    75  ILE75       0.0019
      7  CG2       49.8710   -0.2840   14.6700 C.3    75  ILE75       0.0020
      8  CD1       46.9130    0.8400   14.8050 C.3    75  ILE75       0.0001
      9  N         49.3630   -3.9090   14.0000 N.am   76  ALA76      -0.1980
     10  CA        50.1840   -5.0290   14.4730 C.3    76  ALA76       0.1597
     11  C         50.8590   -5.7550   13.3100 C.2    76  ALA76       0.2287
     12  O         51.9800   -6.2630   13.4550 O.2    76  ALA76      -0.2864
     13  CB        49.3330   -6.0150   15.2890 C.3    76  ALA76       0.0319
     14  N         47.0320   -8.4460   19.4810 N.3   247  GLN247     -0.1245
     15  CA        47.6440   -7.1230   19.6010 C.3   247  GLN247      0.1566
     16  C         46.6910   -5.9910   19.1840 C.2   247  GLN247      0.2260
     17  O         46.6560   -4.9040   19.8010 O.2   247  GLN247     -0.2867
     18  CB        48.9430   -7.1250   18.7920 C.3   247  GLN247      0.0367
     19  CG        50.0090   -8.0290   19.4480 C.3   247  GLN247      0.0905
     20  CD        51.2040   -8.3850   18.5480 C.2   247  GLN247      0.2608
     21  OE1       52.1880   -8.9740   19.0150 O.2   247  GLN247     -0.2717
     22  NE2       51.1210   -8.0430   17.2670 N.am  247  GLN247     -0.0878
     23  N         44.4110   -5.2350   21.9570 N.3   250  GLN250     -0.1231
     24  CA        45.1080   -4.4660   22.9850 C.3   250  GLN250      0.1698
     25  C         45.1930   -3.0090   22.5630 C.2   250  GLN250      0.2592
     26  O         44.9450   -2.1080   23.3570 O.2   250  GLN250     -0.2718
     27  CB        46.5190   -5.0040   23.1810 C.3   250  GLN250      0.0381
     28  CG        46.6150   -6.3130   23.9650 C.3   250  GLN250      0.0905
     29  CD        48.0320   -6.8720   23.9290 C.2   250  GLN250      0.2608
     30  OE1       48.4170   -7.5600   22.9790 O.2   250  GLN250     -0.2717
     31  NE2       48.8260   -6.5500   24.9490 N.am  250  GLN250     -0.0878
     32  N         45.5560   -2.7760   21.3060 N.am  251  LEU251     -0.1980
     33  CA        45.6640   -1.4090   20.8080 C.3   251  LEU251      0.1596
     34  C         44.3160   -0.6720   20.8290 C.2   251  LEU251      0.2287
     35  O         44.2670    0.5460   21.0430 O.2   251  LEU251     -0.2864
     36  CB        46.2480   -1.4230   19.3830 C.3   251  LEU251      0.0297
     37  CG        47.7410   -1.7480   19.2300 C.3   251  LEU251      0.0022
     38  CD1       48.0560   -2.1080   17.7770 C.3   251  LEU251      0.0001
     39  CD2       48.5810   -0.5430   19.6640 C.3   251  LEU251      0.0001
     40  N         43.6990    0.8520   24.2270 N.3   254  SER254     -0.1217
     41  CA        44.7030    1.7630   24.7660 C.3   254  SER254      0.1889
     42  C         44.0250    3.1310   24.9110 C.2   254  SER254      0.2288
     43  O         43.0830    3.4360   24.1900 O.2   254  SER254     -0.2866
     44  CB        45.9010    1.8490   23.8290 C.3   254  SER254      0.2089
     45  OG        46.5690    0.5980   23.7880 O.3   254  SER254     -0.2183
     46  N         44.0220    6.8620   24.3320 N.3   256  TYR256     -0.1241
     47  CA        44.6230    7.8780   23.4770 C.3   256  TYR256      0.1605
     48  C         44.3230    9.3140   23.8420 C.2   256  TYR256      0.2264
     49  O         45.1590   10.1900   23.6140 O.2   256  TYR256     -0.2867
     50  CB        44.1810    7.6420   22.0260 C.3   256  TYR256      0.0534
     51  CG        44.6250    6.2960   21.5040 C.ar  256  TYR256     -0.0201
     52  CD1       45.9020    6.1250   20.9790 C.ar  256  TYR256     -0.0009
     53  CD2       43.7900    5.1850   21.5990 C.ar  256  TYR256     -0.0009
     54  CE1       46.3440    4.8910   20.5660 C.ar  256  TYR256      0.0417
     55  CE2       44.2270    3.9150   21.1810 C.ar  256  TYR256      0.0417
     56  CZ        45.5010    3.7820   20.6710 C.ar  256  TYR256      0.1957
     57  OH        45.9750    2.5610   20.2820 O.3   256  TYR256     -0.2866
     58  N         50.1160    6.9440   24.5800 N.3   298  PRO298     -0.2116
     59  CA        48.8970    6.2680   25.0340 C.3   298  PRO298      0.1372
     60  C         49.1590    5.1890   26.0900 C.2   298  PRO298      0.2244
     61  O         50.1740    4.5050   26.0370 O.2   298  PRO298     -0.2868
     62  CB        48.3300    5.6690   23.7460 C.3   298  PRO298      0.0268
     63  CG        48.8270    6.6300   22.6640 C.3   298  PRO298      0.0207
     64  CD        50.2660    6.8520   23.1130 C.3   298  PRO298      0.0892
     65  N         48.6620    1.5930   27.6100 N.3   300  PRO300     -0.2102
     66  CA        48.2080    0.2890   27.1060 C.3   300  PRO300      0.1504
     67  C         46.9170   -0.0760   27.8310 C.2   300  PRO300      0.2575
     68  O         46.6760    0.4140   28.9330 O.2   300  PRO300     -0.2718
     69  CB        49.3600   -0.6420   27.4800 C.3   300  PRO300      0.0282
     70  CG        50.5590    0.2910   27.4510 C.3   300  PRO300      0.0208
     71  CD        50.0310    1.5080   28.1460 C.3   300  PRO300      0.0893
     72  N         46.0960   -0.9340   27.2300 N.am  301  ALA301     -0.1980
     73  CA        44.8230   -1.3290   27.8490 C.3   301  ALA301      0.1597
     74  C         44.9360   -1.5430   29.3680 C.2   301  ALA301      0.2287
     75  O         45.7570   -2.3340   29.8360 O.2   301  ALA301     -0.2864
     76  CB        44.2880   -2.5970   27.1760 C.3   301  ALA301      0.0319
@<TRIPOS>BOND
     1     1     2    1
     2     2     3    1
     3     2     5    1
     4     4     3    2
     5     3     9   am
     6    11    12    2
     7    11    10    1
     8     6     5    1
     9     6     8    1
    10     9    10    1
    11     5     7    1
    12    10    13    1
    13    22    20   am
    14    38    37    1
    15    20    21    2
    16    20    19    1
    17    18    19    1
    18    18    15    1
    19    16    15    1
    20    16    17    2
    21    37    36    1
    22    37    39    1
    23    36    33    1
    24    14    15    1
    25    57    56    1
    26    54    56   ar
    27    54    52   ar
    28    56    55   ar
    29    33    34    1
    30    33    32    1
    31    34    35    2
    32    52    51   ar
    33    55    53   ar
    34    32    25   am
    35    51    53   ar
    36    51    50    1
    37    23    24    1
    38    50    47    1
    39    25    24    1
    40    25    26    2
    41    63    64    1
    42    63    62    1
    43    30    29    2
    44    24    27    1
    45    64    58    1
    46    27    28    1
    47    47    48    1
    48    47    46    1
    49    49    48    2
    50    62    59    1
    51    45    44    1
    52    44    41    1
    53    29    28    1
    54    29    31   am
    55    43    42    2
    56    40    41    1
    57    58    59    1
    58    41    42    1
    59    59    60    1
    60    61    60    2
    61    66    69    1
    62    66    65    1
    63    66    67    1
    64    76    73    1
    65    72    67   am
    66    72    73    1
    67    70    69    1
    68    70    71    1
    69    65    71    1
    70    67    68    2
    71    73    74    1
    72    74    75    2
