@<TRIPOS>MOLECULE
tmp/1l2sA00.pdb
 141 130 0 0 0
SMALL
GASTEIGER

@<TRIPOS>ATOM
      1  N         26.4600    1.6420   16.0980 N.3    61  SER61      -0.1217
      2  CA        27.8120    2.0580   16.4970 C.3    61  SER61       0.1889
      3  C         28.6700    1.0140   17.1910 C.2    61  SER61       0.2288
      4  O         29.8810    1.1820   17.2660 O.2    61  SER61      -0.2866
      5  CB        27.7690    3.3020   17.3940 C.3    61  SER61       0.2089
      6  OG        27.5440    4.4590   16.6200 O.3    61  SER61      -0.2183
      7  N         31.6480   -0.0110   15.4440 N.3    64  LYS64      -0.1245
      8  CA        32.9160    0.7130   15.4950 C.3    64  LYS64       0.1561
      9  C         33.9800    0.0070   16.3170 C.2    64  LYS64       0.2260
     10  O         35.1590    0.2760   16.1320 O.2    64  LYS64      -0.2867
     11  CB        32.7160    2.1290   16.0320 C.3    64  LYS64       0.0271
     12  CG        31.8740    3.0110   15.1180 C.3    64  LYS64       0.0035
     13  CD        31.5910    4.3540   15.7790 C.3    64  LYS64       0.0206
     14  CE        30.8580    5.2800   14.8140 C.3    64  LYS64       0.1093
     15  NZ        29.5330    4.7290   14.4130 N.3    64  LYS64      -0.1314
     16  N         29.1010   14.2210   11.9660 N.3   116  LEU116     -0.1231
     17  CA        28.5330   12.9940   12.5070 C.3   116  LEU116      0.1693
     18  C         28.2280   11.9680   11.4170 C.2   116  LEU116      0.2591
     19  O         28.6000   10.7950   11.5340 O.2   116  LEU116     -0.2718
     20  CB        27.2560   13.3210   13.2860 C.3   116  LEU116      0.0284
     21  CG        26.4740   12.1600   13.9080 C.3   116  LEU116      0.0019
     22  CD1       27.3440   11.4130   14.9120 C.3   116  LEU116      0.0001
     23  CD2       25.2320   12.7130   14.5970 C.3   116  LEU116      0.0001
     24  N         27.5710   12.4250   10.3540 N.am  117  GLN117     -0.1979
     25  CA        27.1830   11.5540    9.2530 C.3   117  GLN117      0.1601
     26  C         27.7530   12.0070    7.9190 C.2   117  GLN117      0.2287
     27  O         27.9570   13.2050    7.6940 O.2   117  GLN117     -0.2864
     28  CB        25.6510   11.5260    9.1340 C.3   117  GLN117      0.0394
     29  CG        24.9060   11.3570   10.4600 C.3   117  GLN117      0.0908
     30  CD        23.8630   12.4540   10.6970 C.2   117  GLN117      0.2608
     31  OE1       24.1470   13.6460   10.5330 O.2   117  GLN117     -0.2717
     32  NE2       22.6560   12.0530   11.0970 N.am  117  GLN117     -0.0878
     33  N         32.2360   13.0430   18.1060 N.3   147  TYR147     -0.1241
     34  CA        31.8240   11.7220   17.6280 C.3   147  TYR147      0.1605
     35  C         31.3990   11.8610   16.1700 C.2   147  TYR147      0.2264
     36  O         30.6110   12.7440   15.8330 O.2   147  TYR147     -0.2867
     37  CB        30.6570   11.2310   18.4790 C.3   147  TYR147      0.0534
     38  CG        30.3080    9.7740   18.2960 C.ar  147  TYR147     -0.0201
     39  CD1       29.1660    9.3840   17.5920 C.ar  147  TYR147     -0.0009
     40  CD2       31.0890    8.7840   18.8760 C.ar  147  TYR147     -0.0009
     41  CE1       28.8120    8.0250   17.4840 C.ar  147  TYR147      0.0417
     42  CE2       30.7460    7.4390   18.7760 C.ar  147  TYR147      0.0417
     43  CZ        29.6100    7.0670   18.0860 C.ar  147  TYR147      0.1957
     44  OH        29.2720    5.7290   18.0360 O.3   147  TYR147     -0.2866
     45  N         30.7630    9.4520   12.2880 N.3   149  ASN149     -0.1240
     46  CA        30.8650    8.3050   11.3720 C.3   149  ASN149      0.1653
     47  C         31.8400    8.6390   10.2410 C.2   149  ASN149      0.2266
     48  O         32.5500    7.7650    9.7430 O.2   149  ASN149     -0.2867
     49  CB        29.5180    7.9910   10.7130 C.3   149  ASN149      0.1155
     50  CG        28.5210    7.4160   11.6740 C.2   149  ASN149      0.2627
     51  OD1       28.8870    6.8740   12.7160 O.2   149  ASN149     -0.2716
     52  ND2       27.2470    7.5050   11.3190 N.am  149  ASN149     -0.0877
     53  N         10.5240    1.0630   14.5200 N.3   201  ARG201     -0.1245
     54  CA        10.5750    2.4940   14.7350 C.3   201  ARG201      0.1563
     55  C          9.1540    3.0280   14.5840 C.2   201  ARG201      0.2260
     56  O          8.5940    2.9990   13.4920 O.2   201  ARG201     -0.2867
     57  CB        11.4810    3.1600   13.6970 C.3   201  ARG201      0.0307
     58  CG        11.7260    4.6240   14.0050 C.3   201  ARG201      0.0489
     59  CD        12.3540    5.3580   12.8550 C.3   201  ARG201      0.2205
     60  NE        12.7360    6.7110   13.2610 N.pl3 201  ARG201     -0.0865
     61  CZ        13.0490    7.6890   12.4120 C.cat 201  ARG201      0.5346
     62  NH1       13.0220    7.4660   11.1010 N.pl3 201  ARG201      0.1354
     63  NH2       13.3890    8.8900   12.8730 N.pl3 201  ARG201      0.1354
     64  N         18.3270   -1.1350    8.5440 N.3   208  VAL208     -0.1245
     65  CA        19.2160   -0.0260    8.2180 C.3   208  VAL208      0.1561
     66  C         19.3470    0.1370    6.7050 C.2   208  VAL208      0.2260
     67  O         19.4220   -0.8510    5.9750 O.2   208  VAL208     -0.2867
     68  CB        20.6280   -0.2520    8.8230 C.3   208  VAL208      0.0252
     69  CG1       21.2930   -1.4630    8.1600 C.3   208  VAL208      0.0019
     70  CG2       21.4850    1.0090    8.6440 C.3   208  VAL208      0.0019
     71  N         28.7320    1.6110   11.0220 N.3   218  TYR218     -0.1241
     72  CA        27.5470    1.0430   11.6620 C.3   218  TYR218      0.1605
     73  C         26.9610   -0.1380   10.8730 C.2   218  TYR218      0.2264
     74  O         25.7610   -0.3780   10.9070 O.2   218  TYR218     -0.2867
     75  CB        26.4890    2.1460   11.7890 C.3   218  TYR218      0.0534
     76  CG        26.1240    2.8180   10.4680 C.ar  218  TYR218     -0.0201
     77  CD1       25.1430    2.2790    9.6290 C.ar  218  TYR218     -0.0009
     78  CD2       26.7340    4.0080   10.0770 C.ar  218  TYR218     -0.0009
     79  CE1       24.7700    2.9140    8.4420 C.ar  218  TYR218      0.0417
     80  CE2       26.3730    4.6500    8.8910 C.ar  218  TYR218      0.0417
     81  CZ        25.3840    4.0970    8.0800 C.ar  218  TYR218      0.1957
     82  OH        24.9960    4.7490    6.9240 O.3   218  TYR218     -0.2866
     83  N         23.0000   10.9650   24.4580 N.3   286  ASN286     -0.1240
     84  CA        23.4200   11.6180   23.2310 C.3   286  ASN286      0.1653
     85  C         23.4030   13.1420   23.3810 C.2   286  ASN286      0.2266
     86  O         24.1330   13.8530   22.6800 O.2   286  ASN286     -0.2867
     87  CB        22.5030   11.2020   22.0760 C.3   286  ASN286      0.1155
     88  CG        22.7210    9.7580   21.6380 C.2   286  ASN286      0.2627
     89  OD1       23.8520    9.3410   21.3880 O.2   286  ASN286     -0.2716
     90  ND2       21.6330    8.9960   21.5250 N.am  286  ASN286     -0.0877
     91  N         27.8970   13.0500   22.1680 N.3   287  LEU287     -0.1245
     92  CA        27.8880   13.5470   20.7870 C.3   287  LEU287      0.1561
     93  C         28.3270   15.0160   20.6820 C.2   287  LEU287      0.2260
     94  O         28.5410   15.5260   19.5800 O.2   287  LEU287     -0.2867
     95  CB        26.4870   13.3980   20.1680 C.3   287  LEU287      0.0270
     96  CG        25.8480   12.0040   20.1490 C.3   287  LEU287      0.0019
     97  CD1       24.5150   12.0530   19.4100 C.3   287  LEU287      0.0001
     98  CD2       26.7800   11.0190   19.4690 C.3   287  LEU287      0.0001
     99  N         27.9400    2.0770   23.1010 N.3   310  THR310     -0.1203
    100  CA        26.5040    2.0810   22.8580 C.3   310  THR310      0.1994
    101  C         26.3280    2.1060   21.3260 C.2   310  THR310      0.2618
    102  O         27.2130    2.5620   20.5930 O.2   310  THR310     -0.2717
    103  CB        25.8230    3.3490   23.4000 C.3   310  THR310      0.1784
    104  OG1       26.4150    4.4940   22.7700 O.3   310  THR310     -0.2211
    105  CG2       25.9820    3.4570   24.9070 C.3   310  THR310      0.0376
    106  N         25.1950    1.6190   20.8410 N.am  311  GLY311     -0.1942
    107  CA        24.9740    1.6390   19.4000 C.3   311  GLY311      0.2014
    108  C         23.5000    1.5920   19.0650 C.2   311  GLY311      0.2639
    109  O         22.7030    1.0610   19.8420 O.2   311  GLY311     -0.2714
    110  N         23.1190    2.1360   17.9150 N.am  312  ALA312     -0.1963
    111  CA        21.7160    2.0980   17.5300 C.3   312  ALA312      0.1728
    112  C         21.5710    2.2570   16.0360 C.2   312  ALA312      0.2617
    113  O         22.5420    2.5350   15.3480 O.2   312  ALA312     -0.2715
    114  CB        20.9520    3.2270   18.2450 C.3   312  ALA312      0.0334
    115  N         20.3580    2.0000   15.5410 N.am  313  THR313     -0.1937
    116  CA        20.0160    2.2400   14.1450 C.3   313  THR313      0.2028
    117  C         18.5920    2.7560   14.2530 C.2   313  THR313      0.2642
    118  O         18.0750    2.8950   15.3580 O.2   313  THR313     -0.2714
    119  CB        20.0580    0.9740   13.2510 C.3   313  THR313      0.1808
    120  OG1       19.1220    0.0060   13.7330 O.3   313  THR313     -0.2208
    121  CG2       21.4690    0.3860   13.2230 C.3   313  THR313      0.0379
    122  N         17.9490    3.0540   13.1290 N.am  314  GLY314     -0.1954
    123  CA        16.5920    3.5530   13.2130 C.3   314  GLY314      0.1869
    124  C         15.6980    2.6290   14.0280 C.2   314  GLY314      0.2309
    125  O         14.8080    3.0870   14.7510 O.2   314  GLY314     -0.2863
    126  N         15.0270    1.2200   19.1610 N.3   337  ASN337     -0.1240
    127  CA        16.0540    2.1540   19.6240 C.3   337  ASN337      0.1653
    128  C         15.5140    2.9310   20.8230 C.2   337  ASN337      0.2266
    129  O         14.7070    3.8360   20.6540 O.2   337  ASN337     -0.2867
    130  CB        16.4480    3.1160   18.5000 C.3   337  ASN337      0.1155
    131  CG        17.4610    4.1650   18.9500 C.2   337  ASN337      0.2627
    132  OD1       18.1180    4.0210   19.9900 O.2   337  ASN337     -0.2716
    133  ND2       17.6010    5.2180   18.1610 N.am  337  ASN337     -0.0877
    134  N         19.7610    5.7580   25.5000 N.3   340  ASN340     -0.1240
    135  CA        21.0480    5.2020   25.9440 C.3   340  ASN340      0.1653
    136  C         21.1760    5.0660   27.4680 C.2   340  ASN340      0.2266
    137  O         21.6300    4.0330   27.9740 O.2   340  ASN340     -0.2867
    138  CB        22.2350    6.0540   25.4580 C.3   340  ASN340      0.1155
    139  CG        22.6180    5.7820   24.0060 C.2   340  ASN340      0.2627
    140  OD1       22.5700    4.6450   23.5330 O.2   340  ASN340     -0.2716
    141  ND2       23.0290    6.8310   23.2990 N.am  340  ASN340     -0.0877
@<TRIPOS>BOND
     1    67    66    2
     2    66    65    1
     3    82    81    1
     4    27    26    2
     5    26    25    1
     6    81    79   ar
     7    81    80   ar
     8    69    68    1
     9    65    64    1
    10    65    68    1
    11    79    77   ar
    12    70    68    1
    13    80    78   ar
    14    28    25    1
    15    28    29    1
    16    25    24    1
    17    77    76   ar
    18    48    47    2
    19    78    76   ar
    20    47    46    1
    21    24    18   am
    22    29    30    1
    23    76    75    1
    24    31    30    2
    25    30    32   am
    26    49    46    1
    27    49    50    1
    28    73    74    2
    29    73    72    1
    30    71    72    1
    31    62    61    1
    32    52    50   am
    33    46    45    1
    34    18    19    2
    35    18    17    1
    36    72    75    1
    37    50    51    2
    38    16    17    1
    39    61    63    1
    40    61    60    2
    41    17    20    1
    42    59    60    1
    43    59    58    1
    44   122   123    1
    45   122   117   am
    46   123   124    1
    47   121   119    1
    48   119   120    1
    49   119   116    1
    50    20    21    1
    51    56    55    2
    52    57    58    1
    53    57    54    1
    54    21    23    1
    55    21    22    1
    56   124   125    2
    57   116   117    1
    58   116   115    1
    59   117   118    2
    60    15    14    1
    61    53    54    1
    62    55    54    1
    63    14    13    1
    64    12    13    1
    65    12    11    1
    66   113   112    2
    67     7     8    1
    68     8    11    1
    69     8     9    1
    70   115   112   am
    71    36    35    2
    72   112   111    1
    73     1     2    1
    74    10     9    2
    75    35    34    1
    76     2     3    1
    77     2     5    1
    78     6     5    1
    79     3     4    2
    80    41    39   ar
    81    41    43   ar
    82   111   110    1
    83   111   114    1
    84    39    38   ar
    85    34    33    1
    86    34    37    1
    87   110   108   am
    88    44    43    1
    89    43    42   ar
    90   133   131   am
    91    38    37    1
    92    38    40   ar
    93   130   131    1
    94   130   127    1
    95    42    40   ar
    96   131   132    2
    97   108   107    1
    98   108   109    2
    99   126   127    1
   100   107   106    1
   101    97    96    1
   102    98    96    1
   103    94    93    2
   104   127   128    1
   105    96    95    1
   106    95    92    1
   107   102   101    2
   108   129   128    2
   109    93    92    1
   110    92    91    1
   111   106   101   am
   112   101   100    1
   113    89    88    2
   114    90    88   am
   115    88    87    1
   116    87    84    1
   117    86    85    2
   118   104   103    1
   119   100    99    1
   120   100   103    1
   121    84    85    1
   122    84    83    1
   123   141   139   am
   124   103   105    1
   125   140   139    2
   126   139   138    1
   127   138   135    1
   128   134   135    1
   129   135   136    1
   130   136   137    2
