@<TRIPOS>MOLECULE
tmp/1l2tB00.pdb
 101 98 0 0 0
SMALL
GASTEIGER

@<TRIPOS>ATOM
      1  N         44.3510    2.4780   49.4180 N.3   138  PHE138     -0.1241
      2  CA        43.9920    3.2320   48.2200 C.3   138  PHE138      0.1605
      3  C         45.1170    4.1290   47.7130 C.2   138  PHE138      0.2264
      4  O         45.0470    4.6290   46.5950 O.2   138  PHE138     -0.2867
      5  CB        42.7100    4.0330   48.4560 C.3   138  PHE138      0.0534
      6  CG        41.5060    3.1660   48.6300 C.ar  138  PHE138     -0.0203
      7  CD1       40.8630    3.0760   49.8530 C.ar  138  PHE138     -0.0042
      8  CD2       41.0590    2.3720   47.5720 C.ar  138  PHE138     -0.0042
      9  CE1       39.7890    2.1990   50.0270 C.ar  138  PHE138     -0.0003
     10  CE2       39.9940    1.4980   47.7320 C.ar  138  PHE138     -0.0003
     11  CZ        39.3550    1.4040   48.9580 C.ar  138  PHE138     -0.0000
     12  N         46.1860    3.6130   44.0540 N.3   141  HIS141     -0.1241
     13  CA        45.2150    3.7730   42.9690 C.3   141  HIS141      0.1621
     14  C         45.4050    5.1130   42.2620 C.2   141  HIS141      0.2264
     15  O         45.7620    6.1190   42.8920 O.2   141  HIS141     -0.2867
     16  CB        43.7940    3.7940   43.5160 C.3   141  HIS141      0.0745
     17  CG        43.3120    2.4870   44.0460 C.ar  141  HIS141      0.0817
     18  ND1       42.0500    2.0030   43.7630 N.ar  141  HIS141     -0.2268
     19  CD2       43.8700    1.5910   44.8940 C.ar  141  HIS141      0.1154
     20  CE1       41.8520    0.8750   44.4190 C.ar  141  HIS141      0.1986
     21  NE2       42.9430    0.6030   45.1150 N.ar  141  HIS141     -0.2212
     22  N         41.4750    7.6580   38.3700 N.3   144  ASN144     -0.1225
     23  CA        40.4240    6.9170   37.6680 C.3   144  ASN144      0.1785
     24  C         40.1010    5.5590   38.2780 C.2   144  ASN144      0.2597
     25  O         39.1830    4.8830   37.8250 O.2   144  ASN144     -0.2718
     26  CB        40.7210    6.7870   36.1590 C.3   144  ASN144      0.1169
     27  CG        41.8360    5.7760   35.8350 C.2   144  ASN144      0.2627
     28  OD1       42.4970    5.2290   36.7150 O.2   144  ASN144     -0.2716
     29  ND2       42.0300    5.5230   34.5510 N.am  144  ASN144     -0.0877
     30  N         40.8620    5.1470   39.2850 N.am  145  GLN145     -0.1965
     31  CA        40.6060    3.8770   39.9600 C.3   145  GLN145      0.1733
     32  C         39.9990    4.1390   41.3390 C.2   145  GLN145      0.2616
     33  O         39.9410    3.2420   42.1890 O.2   145  GLN145     -0.2715
     34  CB        41.8980    3.0850   40.1190 C.3   145  GLN145      0.0408
     35  CG        42.5800    2.8170   38.8050 C.3   145  GLN145      0.0908
     36  CD        43.8880    2.1300   38.9920 C.2   145  GLN145      0.2608
     37  OE1       44.7600    2.6240   39.6960 O.2   145  GLN145     -0.2717
     38  NE2       44.0330    0.9740   38.3790 N.am  145  GLN145     -0.0878
     39  N         39.5530    5.3730   41.5580 N.am  146  LEU146     -0.1963
     40  CA        38.9750    5.7600   42.8350 C.3   146  LEU146      0.1728
     41  C         37.5600    6.2890   42.6530 C.2   146  LEU146      0.2617
     42  O         37.2060    6.7560   41.5600 O.2   146  LEU146     -0.2715
     43  CB        39.8440    6.8490   43.4940 C.3   146  LEU146      0.0311
     44  CG        41.2540    6.4730   43.9610 C.3   146  LEU146      0.0022
     45  CD1       42.0060    7.6990   44.4050 C.3   146  LEU146      0.0001
     46  CD2       41.1710    5.4820   45.0850 C.3   146  LEU146      0.0001
     47  N         36.7460    6.1790   43.7070 N.am  147  SER147     -0.1936
     48  CA        35.3730    6.6910   43.6940 C.3   147  SER147      0.2055
     49  C         35.4170    8.2100   43.8870 C.2   147  SER147      0.2644
     50  O         36.4480    8.7480   44.2890 O.2   147  SER147     -0.2714
     51  CB        34.5760    6.0780   44.8410 C.3   147  SER147      0.2130
     52  OG        35.0690    6.5170   46.0830 O.3   147  SER147     -0.2179
     53  N         34.3030    8.8950   43.6400 N.am  148  GLY148     -0.1939
     54  CA        34.2800   10.3390   43.8180 C.3   148  GLY148      0.2014
     55  C         34.6970   10.8260   45.2040 C.2   148  GLY148      0.2639
     56  O         35.4410   11.7980   45.3250 O.2   148  GLY148     -0.2714
     57  N         34.2290   10.1410   46.2440 N.am  149  GLY149     -0.1939
     58  CA        34.5610   10.5010   47.6150 C.3   149  GLY149      0.2014
     59  C         36.0080   10.1720   47.9450 C.2   149  GLY149      0.2638
     60  O         36.6240   10.8610   48.7720 O.2   149  GLY149     -0.2714
     61  N         36.5430    9.0950   47.3590 N.am  150  GLN150     -0.1977
     62  CA        37.9500    8.7350   47.5890 C.3   150  GLN150      0.1601
     63  C         38.8190    9.7990   46.9300 C.2   150  GLN150      0.2287
     64  O         39.8010   10.2610   47.5200 O.2   150  GLN150     -0.2864
     65  CB        38.2620    7.3450   47.0420 C.3   150  GLN150      0.0394
     66  CG        37.5440    6.2600   47.8230 C.3   150  GLN150      0.0908
     67  CD        37.6270    4.8830   47.1860 C.2   150  GLN150      0.2608
     68  OE1       37.7910    4.7590   45.9760 O.2   150  GLN150     -0.2717
     69  NE2       37.4700    3.8410   47.9940 N.am  150  GLN150     -0.0878
     70  N         38.9900   12.8530   49.0090 N.3   153  ARG153     -0.1245
     71  CA        39.9180   12.7230   50.1160 C.3   153  ARG153      0.1563
     72  C         41.3580   12.8930   49.6490 C.2   153  ARG153      0.2260
     73  O         42.1930   13.4420   50.3810 O.2   153  ARG153     -0.2867
     74  CB        39.6890   11.4120   50.8530 C.3   153  ARG153      0.0307
     75  CG        38.4650   11.4920   51.7330 C.3   153  ARG153      0.0489
     76  CD        38.0930   10.1670   52.3220 C.3   153  ARG153      0.2205
     77  NE        37.3180    9.3270   51.4090 N.pl3 153  ARG153     -0.0865
     78  CZ        37.1530    8.0200   51.5730 C.cat 153  ARG153      0.5346
     79  NH1       37.7190    7.4150   52.6060 N.pl3 153  ARG153      0.1354
     80  NH2       36.3740    7.3220   50.7540 N.pl3 153  ARG153      0.1354
     81  N         31.2570   15.1470   48.0730 N.3   175  ALA175     -0.1231
     82  CA        31.1930   13.7880   47.5400 C.3   175  ALA175      0.1694
     83  C         31.3590   12.7550   48.6400 C.2   175  ALA175      0.2592
     84  O         31.6010   11.5850   48.3590 O.2   175  ALA175     -0.2718
     85  CB        32.2820   13.5950   46.4890 C.3   175  ALA175      0.0304
     86  N         31.1810   13.1790   49.8850 N.am  176  LEU176     -0.1966
     87  CA        31.3490   12.3040   51.0360 C.3   176  LEU176      0.1728
     88  C         30.0600   12.0380   51.8090 C.2   176  LEU176      0.2616
     89  O         29.1730   12.8780   51.8350 O.2   176  LEU176     -0.2715
     90  CB        32.3860   12.9200   51.9810 C.3   176  LEU176      0.0311
     91  CG        33.8080   13.0440   51.4230 C.3   176  LEU176      0.0022
     92  CD1       34.6710   13.7290   52.4740 C.3   176  LEU176      0.0001
     93  CD2       34.3970   11.6900   51.0640 C.3   176  LEU176      0.0001
     94  N         29.9340   10.8360   52.3740 N.am  177  ASP177     -0.1971
     95  CA        28.7630   10.4980   53.1860 C.3   177  ASP177      0.1709
     96  C         28.9400   11.3530   54.4400 C.2   177  ASP177      0.2293
     97  O         30.0650   11.7530   54.7520 O.2   177  ASP177     -0.2864
     98  CB        28.7780    9.0150   53.5510 C.3   177  ASP177      0.1436
     99  CG        30.0810    8.6030   54.1930 C.2   177  ASP177      0.3671
    100  OD1       31.0610    8.3880   53.4440 O.co2 177  ASP177     -0.2456
    101  OD2       30.1470    8.5460   55.4390 O.co2 177  ASP177     -0.2456
@<TRIPOS>BOND
     1    29    27   am
     2    27    26    1
     3    27    28    2
     4    26    23    1
     5    23    24    1
     6    23    22    1
     7    25    24    2
     8    24    30   am
     9    38    36   am
    10    35    36    1
    11    35    34    1
    12    36    37    2
    13    30    31    1
    14    31    34    1
    15    31    32    1
    16    32    39   am
    17    32    33    2
    18    39    40    1
    19    42    41    2
    20    14    15    2
    21    14    13    1
    22    41    40    1
    23    41    47   am
    24    40    43    1
    25    13    16    1
    26    13    12    1
    27    43    44    1
    28    16    17    1
    29    53    54    1
    30    53    49   am
    31    48    47    1
    32    48    49    1
    33    48    51    1
    34    18    17   ar
    35    18    20   ar
    36    54    55    1
    37    49    50    2
    38    44    45    1
    39    44    46    1
    40    17    19   ar
    41    20    21   ar
    42    51    52    1
    43    19    21   ar
    44    55    56    2
    45    55    57   am
    46    68    67    2
    47    57    58    1
    48    85    82    1
    49     4     3    2
    50    63    64    2
    51    63    62    1
    52    65    62    1
    53    65    66    1
    54    67    66    1
    55    67    69   am
    56    61    62    1
    57    61    59   am
    58    82    81    1
    59    82    83    1
    60     8    10   ar
    61     8     6   ar
    62    58    59    1
    63     3     2    1
    64    10    11   ar
    65    59    60    2
    66     2     5    1
    67     2     1    1
    68    84    83    2
    69     5     6    1
    70     6     7   ar
    71    83    86   am
    72    11     9   ar
    73    70    71    1
    74    72    71    1
    75    72    73    2
    76     7     9   ar
    77    86    87    1
    78    71    74    1
    79    80    78    1
    80    74    75    1
    81    87    88    1
    82    87    90    1
    83    93    91    1
    84    77    78    2
    85    77    76    1
    86    91    90    1
    87    91    92    1
    88    78    79    1
    89    75    76    1
    90    88    89    2
    91    88    94   am
    92    94    95    1
    93    95    98    1
    94    95    96    1
    95   100    99   ar
    96    98    99    1
    97    99   101   ar
    98    96    97    2
