@<TRIPOS>MOLECULE
tmp/1l2tB01.pdb
 115 111 0 0 0
SMALL
GASTEIGER

@<TRIPOS>ATOM
      1  N         33.2920   39.4020   33.7040 N.3    11  TYR11      -0.1241
      2  CA        33.5400   38.6080   32.5070 C.3    11  TYR11       0.1605
      3  C         32.7770   39.2840   31.3780 C.2    11  TYR11       0.2264
      4  O         31.6840   39.7940   31.5890 O.2    11  TYR11      -0.2867
      5  CB        33.0190   37.1920   32.6770 C.3    11  TYR11       0.0534
      6  CG        33.7760   36.4130   33.7050 C.ar   11  TYR11      -0.0201
      7  CD1       33.2430   36.1980   34.9860 C.ar   11  TYR11      -0.0009
      8  CD2       35.0380   35.8980   33.4150 C.ar   11  TYR11      -0.0009
      9  CE1       33.9620   35.4730   35.9710 C.ar   11  TYR11       0.0417
     10  CE2       35.7640   35.1770   34.3810 C.ar   11  TYR11       0.0417
     11  CZ        35.2110   34.9720   35.6530 C.ar   11  TYR11       0.1957
     12  OH        35.9030   34.2300   36.5770 O.3    11  TYR11      -0.2866
     13  N         30.8170   38.6540   28.1810 N.3    13  MET13      -0.1245
     14  CA        30.1410   37.6430   27.3750 C.3    13  MET13       0.1570
     15  C         29.4750   38.3220   26.1810 C.2    13  MET13       0.2261
     16  O         28.3570   38.8250   26.2730 O.2    13  MET13      -0.2867
     17  CB        29.0930   36.9150   28.2110 C.3    13  MET13       0.0387
     18  CG        29.6710   36.0290   29.2950 C.3    13  MET13       0.0595
     19  SD        30.5360   34.5670   28.6460 S.3    13  MET13      -0.1393
     20  CE        29.1220   33.6510   27.9010 C.3    13  MET13       0.0692
     21  N         29.3740   40.8100   32.6960 N.3    18  ILE18      -0.1231
     22  CA        28.8750   40.0130   33.8140 C.3    18  ILE18       0.1692
     23  C         29.7100   40.2160   35.0760 C.2    18  ILE18       0.2592
     24  O         30.9310   40.1870   35.0160 O.2    18  ILE18      -0.2718
     25  CB        28.9940   38.5080   33.4450 C.3    18  ILE18       0.0266
     26  CG1       28.1260   38.1790   32.2260 C.3    18  ILE18       0.0019
     27  CG2       28.7780   37.6300   34.6610 C.3    18  ILE18       0.0020
     28  CD1       26.7600   38.7800   32.2710 C.3    18  ILE18       0.0001
     29  N         29.0580   40.3270   36.2250 N.am   19  TYR19      -0.1962
     30  CA        29.7710   40.4870   37.4930 C.3    19  TYR19       0.1771
     31  C         29.7760   39.1910   38.3140 C.2    19  TYR19       0.2619
     32  O         28.7290   38.7990   38.8350 O.2    19  TYR19      -0.2715
     33  CB        29.1110   41.5710   38.3260 C.3    19  TYR19       0.0574
     34  CG        29.3200   42.9380   37.7760 C.ar   19  TYR19      -0.0198
     35  CD1       28.4290   43.4780   36.8520 C.ar   19  TYR19      -0.0009
     36  CD2       30.4320   43.6850   38.1410 C.ar   19  TYR19      -0.0009
     37  CE1       28.6450   44.7260   36.3000 C.ar   19  TYR19       0.0417
     38  CE2       30.6570   44.9340   37.6060 C.ar   19  TYR19       0.0417
     39  CZ        29.7630   45.4520   36.6820 C.ar   19  TYR19       0.1957
     40  OH        29.9940   46.7010   36.1510 O.3    19  TYR19      -0.2866
     41  N         30.9140   38.5070   38.4090 N.am   20  ALA20      -0.1977
     42  CA        30.9890   37.2800   39.2190 C.3    20  ALA20       0.1597
     43  C         31.0210   37.7040   40.6940 C.2    20  ALA20       0.2287
     44  O         30.4520   37.0410   41.5780 O.2    20  ALA20      -0.2864
     45  CB        32.2380   36.4490   38.8550 C.3    20  ALA20       0.0319
     46  N         23.7230   28.7560   44.1610 N.3    40  SER40      -0.1202
     47  CA        24.5500   28.2920   43.0660 C.3    40  SER40       0.2020
     48  C         24.7260   29.5250   42.1530 C.2    40  SER40       0.2619
     49  O         23.7570   30.2320   41.8560 O.2    40  SER40      -0.2717
     50  CB        23.8040   27.1980   42.3130 C.3    40  SER40       0.2103
     51  OG        24.5110   26.7990   41.1600 O.3    40  SER40      -0.2182
     52  N         25.9640   29.8280   41.7850 N.am   41  GLY41      -0.1942
     53  CA        26.2240   30.9710   40.9280 C.3    41  GLY41       0.2014
     54  C         26.4210   32.3020   41.6340 C.2    41  GLY41       0.2640
     55  O         26.7420   33.2720   40.9540 O.2    41  GLY41      -0.2714
     56  N         26.3250   32.3420   42.9700 N.am   42  SER42      -0.1935
     57  CA        26.4590   33.6020   43.7330 C.3    42  SER42       0.2055
     58  C         27.8550   34.2100   43.7820 C.2    42  SER42       0.2644
     59  O         28.0020   35.3480   44.1960 O.2    42  SER42      -0.2714
     60  CB        25.9150   33.4450   45.1610 C.3    42  SER42       0.2130
     61  OG        26.5650   32.3900   45.8520 O.3    42  SER42      -0.2179
     62  N         28.8760   33.4330   43.4110 N.am   43  GLY43      -0.1939
     63  CA        30.2500   33.9320   43.4110 C.3    43  GLY43       0.2014
     64  C         31.2220   33.3430   44.4340 C.2    43  GLY43       0.2639
     65  O         32.3450   33.8410   44.5840 O.2    43  GLY43      -0.2714
     66  N         30.8270   32.2680   45.1060 N.am   44  LYS44      -0.1963
     67  CA        31.6750   31.6310   46.1070 C.3    44  LYS44       0.1728
     68  C         33.0650   31.1580   45.6300 C.2    44  LYS44       0.2617
     69  O         34.0820   31.4730   46.2630 O.2    44  LYS44      -0.2715
     70  CB        30.9070   30.4710   46.7490 C.3    44  LYS44       0.0311
     71  CG        29.4990   30.8440   47.2620 C.3    44  LYS44       0.0038
     72  CD        28.8270   29.6550   47.9590 C.3    44  LYS44       0.0206
     73  CE        28.5370   28.5230   46.9900 C.3    44  LYS44       0.1093
     74  NZ        27.5470   28.9870   45.9420 N.3    44  LYS44      -0.1314
     75  N         33.1130   30.3610   44.5490 N.am   45  SER45      -0.1936
     76  CA        34.3920   29.8620   44.0140 C.3    45  SER45       0.2055
     77  C         35.2410   31.0060   43.4470 C.2    45  SER45       0.2643
     78  O         36.4590   30.9890   43.5630 O.2    45  SER45      -0.2714
     79  CB        34.1930   28.7760   42.9370 C.3    45  SER45       0.2130
     80  OG        33.5990   27.5990   43.4610 O.3    45  SER45      -0.2179
     81  N         34.6090   31.9910   42.8220 N.am   46  THR46      -0.1950
     82  CA        35.3660   33.1110   42.2930 C.3    46  THR46       0.1897
     83  C         36.1000   33.7660   43.4680 C.2    46  THR46       0.2313
     84  O         37.2980   34.0850   43.3800 O.2    46  THR46      -0.2863
     85  CB        34.4490   34.1420   41.6620 C.3    46  THR46       0.1794
     86  OG1       33.6280   33.4960   40.6810 O.3    46  THR46      -0.2208
     87  CG2       35.2760   35.2300   41.0010 C.3    46  THR46       0.0378
     88  N         36.9120   21.9520   44.0580 N.3    90  GLN90      -0.1245
     89  CA        35.6050   21.2990   43.9880 C.3    90  GLN90       0.1566
     90  C         35.6700   20.1570   42.9510 C.2    90  GLN90       0.2260
     91  O         35.1760   19.0550   43.1650 O.2    90  GLN90      -0.2867
     92  CB        34.5230   22.3030   43.6130 C.3    90  GLN90       0.0367
     93  CG        33.1540   21.6700   43.4780 C.3    90  GLN90       0.0905
     94  CD        32.0500   22.6720   43.2020 C.2    90  GLN90       0.2608
     95  OE1       30.8740   22.3420   43.2890 O.2    90  GLN90      -0.2717
     96  NE2       32.4150   23.9020   42.8730 N.am   90  GLN90      -0.0878
     97  N         33.8610   23.2000   48.9420 N.3   171  GLN171     -0.1245
     98  CA        32.8950   22.1050   49.1120 C.3   171  GLN171      0.1566
     99  C         33.6250   20.7890   49.3360 C.2   171  GLN171      0.2260
    100  O         33.3980   19.8120   48.6160 O.2   171  GLN171     -0.2867
    101  CB        32.0280   22.0020   47.8620 C.3   171  GLN171      0.0367
    102  CG        31.5580   23.3690   47.4180 C.3   171  GLN171      0.0905
    103  CD        30.1910   23.3460   46.8360 C.2   171  GLN171      0.2608
    104  OE1       29.3950   22.4470   47.1140 O.2   171  GLN171     -0.2717
    105  NE2       29.8870   24.3400   46.0230 N.am  171  GLN171     -0.0878
    106  N         27.6540   24.1080   50.6100 N.3   204  HIS204     -0.1241
    107  CA        26.2140   24.1980   50.4130 C.3   204  HIS204      0.1621
    108  C         25.5190   23.4260   51.5340 C.2   204  HIS204      0.2264
    109  O         24.2900   23.3730   51.5850 O.2   204  HIS204     -0.2867
    110  CB        25.8150   23.5960   49.0740 C.3   204  HIS204      0.0745
    111  CG        25.9950   24.5260   47.9150 C.ar  204  HIS204      0.0817
    112  ND1       25.5600   25.8350   47.9240 N.ar  204  HIS204     -0.2268
    113  CD2       26.5310   24.3200   46.6890 C.ar  204  HIS204      0.1154
    114  CE1       25.8140   26.3930   46.7600 C.ar  204  HIS204      0.1986
    115  NE2       26.4030   25.4970   45.9870 N.ar  204  HIS204     -0.2212
@<TRIPOS>BOND
     1    15    16    2
     2    15    14    1
     3    14    13    1
     4    14    17    1
     5    20    19    1
     6    17    18    1
     7    19    18    1
     8     3     4    2
     9     3     2    1
    10    26    28    1
    11    26    25    1
    12     2     5    1
    13     2     1    1
    14     5     6    1
    15    21    22    1
    16     8     6   ar
    17     8    10   ar
    18    25    22    1
    19    25    27    1
    20     6     7   ar
    21    22    23    1
    22    10    11   ar
    23     7     9   ar
    24    24    23    2
    25    23    29   am
    26    11     9   ar
    27    11    12    1
    28    40    39    1
    29    29    30    1
    30    37    39   ar
    31    37    35   ar
    32    39    38   ar
    33    35    34   ar
    34    30    31    1
    35    30    33    1
    36    38    36   ar
    37    34    36   ar
    38    34    33    1
    39    31    41   am
    40    31    32    2
    41    41    42    1
    42    45    42    1
    43    42    43    1
    44    86    85    1
    45    43    44    2
    46    53    54    1
    47    53    52    1
    48    55    54    2
    49    87    85    1
    50    51    50    1
    51    54    56   am
    52    85    82    1
    53    52    48   am
    54    49    48    2
    55    48    47    1
    56    82    81    1
    57    82    83    1
    58    50    47    1
    59    81    77   am
    60    96    94   am
    61    79    80    1
    62    79    76    1
    63    90    91    2
    64    90    89    1
    65    56    57    1
    66    47    46    1
    67    94    95    2
    68    94    93    1
    69    84    83    2
    70    63    62    1
    71    63    64    1
    72    62    58   am
    73    77    78    2
    74    77    76    1
    75    93    92    1
    76    92    89    1
    77    57    58    1
    78    57    60    1
    79    58    59    2
    80    89    88    1
    81    76    75    1
    82    64    65    2
    83    64    66   am
    84    75    68   am
    85    66    67    1
    86    60    61    1
    87    68    67    1
    88    68    69    2
    89    74    73    1
    90   115   113   ar
    91   115   114   ar
    92   105   103   am
    93    67    70    1
    94   113   111   ar
    95    70    71    1
    96   114   112   ar
    97   103   104    2
    98   103   102    1
    99    73    72    1
   100    71    72    1
   101   102   101    1
   102   101    98    1
   103   111   112   ar
   104   111   110    1
   105   100    99    2
   106    97    98    1
   107   110   107    1
   108    98    99    1
   109   107   106    1
   110   107   108    1
   111   108   109    2
