@<TRIPOS>MOLECULE
tmp/1l3iF00.pdb
 175 167 0 0 0
SMALL
GASTEIGER

@<TRIPOS>ATOM
      1  N         14.9750   37.0110   -6.9190 N.3    12  VAL12      -0.1231
      2  CA        15.5450   35.6810   -6.6920 C.3    12  VAL12       0.1678
      3  C         14.6580   34.7110   -5.8880 C.2    12  VAL12       0.2434
      4  O         14.2380   35.0200   -4.7680 O.2    12  VAL12      -0.2733
      5  CB        16.8860   35.7960   -5.9520 C.3    12  VAL12       0.0265
      6  CG1       17.6010   34.4540   -5.9430 C.3    12  VAL12       0.0020
      7  CG2       17.7410   36.8810   -6.5640 C.3    12  VAL12       0.0020
      8  N         14.3820   33.5100   -6.4470 N.am   13  PRO13      -0.2718
      9  CA        13.5440   32.5470   -5.7080 C.3    13  PRO13       0.1535
     10  C         14.3590   31.7590   -4.6670 C.2    13  PRO13       0.2599
     11  O         15.5970   31.6580   -4.7740 O.2    13  PRO13      -0.2715
     12  CB        12.9920   31.6560   -6.8260 C.3    13  PRO13       0.0310
     13  CG        14.0970   31.6550   -7.8520 C.3    13  PRO13       0.0237
     14  CD        14.6170   33.0690   -7.8380 C.3    13  PRO13       0.0939
     15  N         13.6580   31.1960   -3.6770 N.am   14  GLY14      -0.1941
     16  CA        14.3100   30.4190   -2.6330 C.3    14  GLY14       0.1998
     17  C         14.2770   31.0810   -1.2580 C.2    14  GLY14       0.2481
     18  O         13.6210   32.1100   -1.1050 O.2    14  GLY14      -0.2729
     19  N         14.9260   30.4960   -0.2230 N.am   15  PRO15      -0.2715
     20  CA        15.6830   29.2370   -0.3110 C.3    15  PRO15       0.1536
     21  C         14.7310   28.0550   -0.4800 C.2    15  PRO15       0.2599
     22  O         13.5150   28.1740   -0.2620 O.2    15  PRO15      -0.2715
     23  CB        16.4010   29.1720    1.0460 C.3    15  PRO15       0.0310
     24  CG        15.3810   29.7610    1.9640 C.3    15  PRO15       0.0237
     25  CD        14.8810   30.9750    1.1740 C.3    15  PRO15       0.0939
     26  N         15.2720   26.9490   -0.9560 N.am   16  THR16      -0.1951
     27  CA        14.4830   25.7480   -1.1410 C.3    16  THR16       0.1897
     28  C         14.0530   25.2960    0.2710 C.2    16  THR16       0.2313
     29  O         14.8080   25.4560    1.2410 O.2    16  THR16      -0.2863
     30  CB        15.3290   24.6390   -1.8520 C.3    16  THR16       0.1794
     31  OG1       15.6130   25.0430   -3.2050 O.3    16  THR16      -0.2208
     32  CG2       14.6010   23.3010   -1.8750 C.3    16  THR16       0.0378
     33  N         26.4520   23.4220   -7.7590 N.3    36  ASP36      -0.1239
     34  CA        25.0620   23.7660   -7.5310 C.3    36  ASP36       0.1674
     35  C         24.6380   24.6450   -8.7130 C.2    36  ASP36       0.2266
     36  O         24.9820   25.8290   -8.7810 O.2    36  ASP36      -0.2867
     37  CB        24.9120   24.5240   -6.2080 C.3    36  ASP36       0.1410
     38  CG        23.4570   24.8750   -5.8960 C.2    36  ASP36       0.3668
     39  OD1       22.5390   24.2370   -6.4510 O.co2  36  ASP36      -0.2456
     40  OD2       23.2280   25.7990   -5.0890 O.co2  36  ASP36      -0.2456
     41  N         22.2870   26.8340  -10.5740 N.3    38  GLY38      -0.1210
     42  CA        21.1460   27.6680  -10.2390 C.3    38  GLY38       0.1956
     43  C         21.0800   27.7780   -8.7220 C.2    38  GLY38       0.2612
     44  O         20.1260   27.3160   -8.1000 O.2    38  GLY38      -0.2717
     45  N         22.0910   28.4020   -8.1230 N.am   39  CYS39      -0.1956
     46  CA        22.1590   28.5350   -6.6700 C.3    39  CYS39       0.1843
     47  C         21.0970   29.4140   -6.0180 C.2    39  CYS39       0.2626
     48  O         20.8500   29.2710   -4.8200 O.2    39  CYS39      -0.2714
     49  CB        23.5640   28.9600   -6.2190 C.3    39  CYS39       0.0997
     50  SG        24.1630   30.5440   -6.8610 S.3    39  CYS39      -0.0797
     51  N         20.4590   30.2930   -6.8010 N.am   40  GLY40      -0.1940
     52  CA        19.4100   31.1690   -6.2920 C.3    40  GLY40       0.2014
     53  C         19.7680   31.9240   -5.0220 C.2    40  GLY40       0.2640
     54  O         20.7470   32.6910   -5.0030 O.2    40  GLY40      -0.2714
     55  N         18.9830   31.7260   -3.9620 N.am   41  THR41      -0.1936
     56  CA        19.2150   32.3770   -2.6700 C.3    41  THR41       0.2028
     57  C         20.3920   31.7550   -1.9220 C.2    41  THR41       0.2643
     58  O         20.9410   32.3770   -1.0200 O.2    41  THR41      -0.2714
     59  CB        17.9500   32.3110   -1.8230 C.3    41  THR41       0.1808
     60  OG1       16.8900   32.9700   -2.5250 O.3    41  THR41      -0.2208
     61  CG2       18.1430   32.9840   -0.4860 C.3    41  THR41       0.0379
     62  N         20.7650   30.5250   -2.2850 N.am   42  GLY42      -0.1939
     63  CA        21.8900   29.8660   -1.6360 C.3    42  GLY42       0.2014
     64  C         21.5590   28.7150   -0.6940 C.2    42  GLY42       0.2639
     65  O         22.4550   28.1230   -0.0770 O.2    42  GLY42      -0.2714
     66  N         20.2840   28.3470   -0.6370 N.am   43  GLY43      -0.1939
     67  CA        19.8620   27.2680    0.2420 C.3    43  GLY43       0.2014
     68  C         20.6680   25.9820    0.1240 C.2    43  GLY43       0.2638
     69  O         21.0460   25.3930    1.1350 O.2    43  GLY43      -0.2714
     70  N         20.9240   25.5410   -1.1010 N.am   44  VAL44      -0.1977
     71  CA        21.6650   24.3060   -1.3070 C.3    44  VAL44       0.1596
     72  C         23.1680   24.5380   -1.1980 C.2    44  VAL44       0.2287
     73  O         23.8980   23.7060   -0.6340 O.2    44  VAL44      -0.2864
     74  CB        21.2930   23.6740   -2.6650 C.3    44  VAL44       0.0276
     75  CG1       22.1280   22.4210   -2.9260 C.3    44  VAL44       0.0022
     76  CG2       19.8100   23.3320   -2.6690 C.3    44  VAL44       0.0022
     77  N         26.5810   28.2490   -9.4910 N.3    58  ILE58      -0.1231
     78  CA        26.3150   28.9550  -10.7460 C.3    58  ILE58       0.1692
     79  C         24.9370   29.5920  -10.7900 C.2    58  ILE58       0.2592
     80  O         23.9810   29.0570  -10.2070 O.2    58  ILE58      -0.2718
     81  CB        26.3940   27.9520  -11.9330 C.3    58  ILE58       0.0266
     82  CG1       27.7480   27.2440  -11.9340 C.3    58  ILE58       0.0019
     83  CG2       26.1210   28.6420  -13.2570 C.3    58  ILE58       0.0020
     84  CD1       27.7840   26.0500  -12.8450 C.3    58  ILE58       0.0001
     85  N         24.8280   30.7280  -11.4740 N.am   59  ASP59      -0.1960
     86  CA        23.5430   31.4120  -11.6530 C.3    59  ASP59       0.1840
     87  C         23.5840   32.5000  -12.7330 C.2    59  ASP59       0.2622
     88  O         24.5400   33.2740  -12.8000 O.2    59  ASP59      -0.2715
     89  CB        23.0160   31.9900  -10.3380 C.3    59  ASP59       0.1450
     90  CG        21.5010   32.0170  -10.2940 C.2    59  ASP59       0.3671
     91  OD1       20.8630   32.7070  -11.1250 O.co2  59  ASP59      -0.2456
     92  OD2       20.9180   31.3200   -9.4380 O.co2  59  ASP59      -0.2456
     93  N         22.5710   32.5130  -13.6050 N.am   60  ARG60      -0.1963
     94  CA        22.4410   33.5100  -14.6780 C.3    60  ARG60       0.1729
     95  C         22.3160   34.8990  -14.0820 C.2    60  ARG60       0.2616
     96  O         22.9970   35.8320  -14.5010 O.2    60  ARG60      -0.2715
     97  CB        21.1390   33.2940  -15.4470 C.3    60  ARG60       0.0348
     98  CG        21.1290   32.1340  -16.3600 C.3    60  ARG60       0.0492
     99  CD        19.7710   32.0230  -16.9830 C.3    60  ARG60       0.2205
    100  NE        19.7120   30.8920  -17.8910 N.pl3  60  ARG60      -0.0865
    101  CZ        18.6860   30.6430  -18.6930 C.cat  60  ARG60       0.5346
    102  NH1       17.6310   31.4470  -18.6970 N.pl3  60  ARG60       0.1354
    103  NH2       18.6920   29.5550  -19.4610 N.pl3  60  ARG60       0.1354
    104  N         21.3600   35.0200  -13.1640 N.am   61  ASN61      -0.1972
    105  CA        21.0340   36.2670  -12.4820 C.3    61  ASN61       0.1688
    106  C         22.1430   36.7400  -11.5290 C.2    61  ASN61       0.2292
    107  O         22.5150   36.0240  -10.6020 O.2    61  ASN61      -0.2864
    108  CB        19.7070   36.0710  -11.7200 C.3    61  ASN61       0.1181
    109  CG        19.1060   37.3830  -11.2180 C.2    61  ASN61       0.2629
    110  OD1       18.1970   37.3730  -10.3760 O.2    61  ASN61      -0.2716
    111  ND2       19.5660   38.5090  -11.7550 N.am   61  ASN61      -0.0877
    112  N         21.1530   36.7720   -7.8050 N.3    64  ALA64      -0.1245
    113  CA        21.2010   35.4900   -7.0990 C.3    64  ALA64       0.1562
    114  C         22.6390   35.2970   -6.6250 C.2    64  ALA64       0.2260
    115  O         22.8870   34.8650   -5.5070 O.2    64  ALA64      -0.2867
    116  CB        20.8090   34.3710   -8.0170 C.3    64  ALA64       0.0290
    117  N         26.5840   33.5010  -14.8180 N.3    84  GLY84      -0.1210
    118  CA        26.5370   33.1190  -16.2080 C.3    84  GLY84       0.1956
    119  C         25.6130   31.9470  -16.4360 C.2    84  GLY84       0.2612
    120  O         25.1000   31.3450  -15.5010 O.2    84  GLY84      -0.2717
    121  N         25.3920   31.6460  -17.7050 N.am   85  ASP85      -0.1959
    122  CA        24.5300   30.5500  -18.1000 C.3    85  ASP85       0.1840
    123  C         25.2650   29.2540  -17.7560 C.2    85  ASP85       0.2621
    124  O         26.4590   29.1150  -18.0180 O.2    85  ASP85      -0.2715
    125  CB        24.2500   30.6650  -19.6030 C.3    85  ASP85       0.1450
    126  CG        23.0230   29.8910  -20.0320 C.2    85  ASP85       0.3671
    127  OD1       21.9700   29.9820  -19.3600 O.co2  85  ASP85      -0.2456
    128  OD2       23.1050   29.1940  -21.0670 O.co2  85  ASP85      -0.2456
    129  N         24.5320   28.3110  -17.1790 N.am   86  ALA86      -0.1977
    130  CA        25.0650   27.0230  -16.7240 C.3    86  ALA86       0.1597
    131  C         25.9570   26.1960  -17.6400 C.2    86  ALA86       0.2287
    132  O         27.0490   25.8090  -17.2330 O.2    86  ALA86      -0.2864
    133  CB        23.9380   26.1370  -16.1750 C.3    86  ALA86       0.0319
    134  N         19.3880   23.1000   -9.3140 N.3   102  GLY102     -0.1210
    135  CA        18.3040   23.8420   -8.6850 C.3   102  GLY102      0.1956
    136  C         17.4920   24.6870   -9.6430 C.2   102  GLY102      0.2612
    137  O         16.4600   25.2280   -9.2520 O.2   102  GLY102     -0.2717
    138  N         17.9410   24.7920  -10.8940 N.am  103  GLY103     -0.1942
    139  CA        17.2470   25.5700  -11.9170 C.3   103  GLY103      0.2014
    140  C         17.8720   25.2580  -13.2720 C.2   103  GLY103      0.2640
    141  O         19.0900   25.1040  -13.3500 O.2   103  GLY103     -0.2714
    142  N         17.0700   25.0920  -14.3240 N.am  104  SER104     -0.1935
    143  CA        17.6310   24.7840  -15.6440 C.3   104  SER104      0.2055
    144  C         17.3490   25.8500  -16.7210 C.2   104  SER104      0.2643
    145  O         18.0610   25.9290  -17.7290 O.2   104  SER104     -0.2714
    146  CB        17.1660   23.3940  -16.1010 C.3   104  SER104      0.2130
    147  OG        15.7570   23.2710  -16.0530 O.3   104  SER104     -0.2179
    148  N         16.2850   26.6240  -16.5340 N.am  105  GLY105     -0.1954
    149  CA        15.9450   27.6910  -17.4500 C.3   105  GLY105      0.1869
    150  C         15.7930   27.3210  -18.9100 C.2   105  GLY105      0.2309
    151  O         16.1340   28.1060  -19.7870 O.2   105  GLY105     -0.2863
    152  N         17.3610   24.8290  -20.4140 N.3   107  GLU107     -0.1245
    153  CA        18.5200   24.0670  -20.8910 C.3   107  GLU107      0.1567
    154  C         18.8140   22.8160  -20.0640 C.2   107  GLU107      0.2260
    155  O         19.9500   22.3680  -20.0330 O.2   107  GLU107     -0.2867
    156  CB        19.7610   24.9630  -20.8750 C.3   107  GLU107      0.0388
    157  CG        19.5690   26.2720  -21.6100 C.3   107  GLU107      0.1160
    158  CD        20.6510   27.2850  -21.3220 C.2   107  GLU107      0.3649
    159  OE1       21.3270   27.1900  -20.2700 O.co2 107  GLU107     -0.2457
    160  OE2       20.8050   28.2070  -22.1510 O.co2 107  GLU107     -0.2457
    161  N         22.3910   20.7870  -19.8410 N.3   111  ILE111     -0.1245
    162  CA        23.0750   20.7700  -18.5520 C.3   111  ILE111      0.1561
    163  C         23.3330   19.3350  -18.0790 C.2   111  ILE111      0.2260
    164  O         24.4270   19.0310  -17.6090 O.2   111  ILE111     -0.2867
    165  CB        22.2820   21.5660  -17.4990 C.3   111  ILE111      0.0252
    166  CG1       22.3480   23.0490  -17.8460 C.3   111  ILE111      0.0019
    167  CG2       22.8170   21.2980  -16.0910 C.3   111  ILE111      0.0019
    168  CD1       21.2960   23.8540  -17.1930 C.3   111  ILE111      0.0001
    169  N         16.0870   19.2150   -8.7600 N.3   128  THR128     -0.1218
    170  CA        14.9600   19.7040   -7.9830 C.3   128  THR128      0.1862
    171  C         13.9360   20.2320   -8.9910 C.2   128  THR128      0.2287
    172  O         14.2090   21.2080   -9.6900 O.2   128  THR128     -0.2866
    173  CB        15.3840   20.8660   -7.0670 C.3   128  THR128      0.1770
    174  OG1       16.5570   20.4760   -6.3290 O.3   128  THR128     -0.2211
    175  CG2       14.2690   21.1840   -6.0850 C.3   128  THR128      0.0375
@<TRIPOS>BOND
     1   160   158   ar
     2   157   158    1
     3   157   156    1
     4   158   159   ar
     5   128   126   ar
     6   153   156    1
     7   153   152    1
     8   153   154    1
     9   154   155    2
    10   126   125    1
    11   126   127   ar
    12   161   162    1
    13   151   150    2
    14   125   122    1
    15   103   101    1
    16   150   149    1
    17   102   101    1
    18   101   100    2
    19   162   163    1
    20   162   165    1
    21   122   123    1
    22   122   121    1
    23   163   164    2
    24   124   123    2
    25   100    99    1
    26   166   165    1
    27   166   168    1
    28   123   129   am
    29   145   144    2
    30   121   119   am
    31   131   132    2
    32   131   130    1
    33   165   167    1
    34   149   148    1
    35   129   130    1
    36    99    98    1
    37   130   133    1
    38   144   148   am
    39   144   143    1
    40   119   118    1
    41   119   120    2
    42    98    97    1
    43   118   117    1
    44   146   147    1
    45   146   143    1
    46   143   142    1
    47    97    94    1
    48    94    95    1
    49    94    93    1
    50    96    95    2
    51   142   140   am
    52    95   104   am
    53    93    87   am
    54   141   140    2
    55   140   139    1
    56    83    81    1
    57   104   105    1
    58    84    82    1
    59    88    87    2
    60    87    86    1
    61   105   108    1
    62   105   106    1
    63    82    81    1
    64    81    78    1
    65   139   138    1
    66   111   109   am
    67   108   109    1
    68    86    85    1
    69    86    89    1
    70   106   107    2
    71    85    79   am
    72   109   110    2
    73    91    90   ar
    74   138   136   am
    75    79    78    1
    76    79    80    2
    77    78    77    1
    78    41    42    1
    79    89    90    1
    80    90    92   ar
    81    42    43    1
    82   172   171    2
    83   136   137    2
    84   136   135    1
    85   134   135    1
    86   171   170    1
    87    36    35    2
    88   169   170    1
    89    43    45   am
    90    43    44    2
    91    35    34    1
    92    45    46    1
    93   116   113    1
    94   170   173    1
    95    13    14    1
    96    13    12    1
    97    14     8    1
    98   112   113    1
    99    33    34    1
   100    34    37    1
   101   113   114    1
   102   173   174    1
   103   173   175    1
   104     1     2    1
   105    50    49    1
   106    12     9    1
   107    51    52    1
   108    51    47   am
   109     2     5    1
   110     2     3    1
   111    46    49    1
   112    46    47    1
   113   114   115    2
   114     7     5    1
   115    39    38   ar
   116     8     3   am
   117     8     9    1
   118    52    53    1
   119    37    38    1
   120    47    48    2
   121     5     6    1
   122    38    40   ar
   123     3     4    2
   124     9    10    1
   125    53    54    2
   126    53    55   am
   127    11    10    2
   128    10    15   am
   129    55    56    1
   130    15    16    1
   131    31    30    1
   132    75    74    1
   133    56    57    1
   134    56    59    1
   135    76    74    1
   136    74    71    1
   137    16    17    1
   138    60    59    1
   139    62    57   am
   140    62    63    1
   141    57    58    2
   142    32    30    1
   143    30    27    1
   144    59    61    1
   145    63    64    1
   146    71    72    1
   147    71    70    1
   148    17    18    2
   149    17    19   am
   150    72    73    2
   151    27    26    1
   152    27    28    1
   153    70    68   am
   154    26    21   am
   155    64    66   am
   156    64    65    2
   157    66    67    1
   158    21    20    1
   159    21    22    2
   160    20    19    1
   161    20    23    1
   162    19    25    1
   163    68    67    1
   164    68    69    2
   165    28    29    2
   166    23    24    1
   167    25    24    1
