@<TRIPOS>MOLECULE
tmp/1l3lE00.pdb
 167 161 0 0 0
SMALL
GASTEIGER

@<TRIPOS>ATOM
      1  N         56.0660    7.7600   85.4840 N.3    37  ALA37      -0.1245
      2  CA        55.1720    7.5310   84.3640 C.3    37  ALA37       0.1562
      3  C         55.9510    6.9870   83.1830 C.2    37  ALA37       0.2260
      4  O         56.9390    7.5730   82.7510 O.2    37  ALA37      -0.2867
      5  CB        54.4620    8.8130   83.9770 C.3    37  ALA37       0.0290
      6  N         55.5860    5.8180   79.2400 N.3    39  LEU39      -0.1245
      7  CA        54.6920    5.9390   78.0960 C.3    39  LEU39       0.1561
      8  C         55.2700    5.2730   76.8510 C.2    39  LEU39       0.2260
      9  O         56.4440    5.4490   76.5260 O.2    39  LEU39      -0.2867
     10  CB        54.3960    7.4140   77.7890 C.3    39  LEU39       0.0270
     11  CG        53.3720    8.1800   78.6360 C.3    39  LEU39       0.0019
     12  CD1       52.0130    7.5560   78.4790 C.3    39  LEU39       0.0001
     13  CD2       53.7610    8.1560   80.0910 C.3    39  LEU39       0.0001
     14  N         50.0130    3.8790   78.8770 N.3    48  ALA48      -0.1245
     15  CA        50.8130    4.3050   80.0110 C.3    48  ALA48       0.1562
     16  C         50.8100    3.3270   81.1700 C.2    48  ALA48       0.2260
     17  O         49.8610    2.5770   81.3680 O.2    48  ALA48      -0.2867
     18  CB        50.3260    5.6570   80.5070 C.3    48  ALA48       0.0290
     19  N         51.7060    4.1320   84.9400 N.3    50  THR50      -0.1218
     20  CA        52.0870    5.2280   85.8070 C.3    50  THR50       0.1862
     21  C         51.3180    5.2380   87.1060 C.2    50  THR50       0.2287
     22  O         50.2400    4.6490   87.2040 O.2    50  THR50      -0.2866
     23  CB        51.8200    6.5710   85.0910 C.3    50  THR50       0.1770
     24  OG1       52.1300    7.6580   85.9660 O.3    50  THR50      -0.2211
     25  CG2       50.3550    6.6720   84.6780 C.3    50  THR50       0.0375
     26  N         50.7310    8.2560   88.5200 N.3    52  TYR52      -0.1241
     27  CA        50.2850    9.6530   88.5890 C.3    52  TYR52       0.1605
     28  C         48.8300    9.5800   89.0620 C.2    52  TYR52       0.2264
     29  O         48.1530    8.5710   88.8470 O.2    52  TYR52      -0.2867
     30  CB        50.3340   10.3240   87.2040 C.3    52  TYR52       0.0534
     31  CG        51.6890   10.8430   86.7450 C.ar   52  TYR52      -0.0201
     32  CD1       52.8620   10.5190   87.4220 C.ar   52  TYR52      -0.0009
     33  CD2       51.7940   11.6200   85.5830 C.ar   52  TYR52      -0.0009
     34  CE1       54.1130   10.9460   86.9500 C.ar   52  TYR52       0.0417
     35  CE2       53.0310   12.0520   85.1060 C.ar   52  TYR52       0.0417
     36  CZ        54.1840   11.7120   85.7870 C.ar   52  TYR52       0.1957
     37  OH        55.4060   12.1240   85.2940 O.3    52  TYR52      -0.2866
     38  N         44.3100   12.8330   87.1870 N.3    56  TRP56      -0.1227
     39  CA        45.1800   13.4350   86.1830 C.3    56  TRP56       0.1737
     40  C         45.2850   12.4860   84.9880 C.2    56  TRP56       0.2595
     41  O         45.3530   12.9240   83.8440 O.2    56  TRP56      -0.2718
     42  CB        46.5690   13.6860   86.7840 C.3    56  TRP56       0.0564
     43  CG        47.5360   14.3410   85.8440 C.ar   56  TRP56       0.0003
     44  CD1       48.7780   13.8900   85.5000 C.ar   56  TRP56       0.0946
     45  CD2       47.3440   15.5710   85.1350 C.ar   56  TRP56       0.0152
     46  NE1       49.3750   14.7660   84.6180 N.ar   56  TRP56      -0.2442
     47  CE2       48.5180   15.8060   84.3770 C.ar   56  TRP56       0.0810
     48  CE3       46.2940   16.4990   85.0640 C.ar   56  TRP56       0.0012
     49  CZ2       48.6720   16.9290   83.5580 C.ar   56  TRP56       0.0191
     50  CZ3       46.4460   17.6220   84.2470 C.ar   56  TRP56       0.0001
     51  CH2       47.6310   17.8250   83.5040 C.ar   56  TRP56       0.0015
     52  N         45.2910   11.1850   85.2600 N.am   57  GLN57      -0.1979
     53  CA        45.3700   10.1920   84.1930 C.3    57  GLN57       0.1601
     54  C         44.1600   10.2530   83.2670 C.2    57  GLN57       0.2287
     55  O         44.3040   10.1530   82.0520 O.2    57  GLN57      -0.2864
     56  CB        45.4990    8.7790   84.7710 C.3    57  GLN57       0.0394
     57  CG        46.8620    8.4580   85.3480 C.3    57  GLN57       0.0908
     58  CD        47.0070    6.9930   85.7210 C.2    57  GLN57       0.2608
     59  OE1       46.7430    6.1050   84.9060 O.2    57  GLN57      -0.2717
     60  NE2       47.4430    6.7310   86.9500 N.am   57  GLN57      -0.0878
     61  N         44.2630   13.6820   81.3130 N.3    60  TYR60      -0.1227
     62  CA        45.3520   13.7090   80.3470 C.3    60  TYR60       0.1736
     63  C         44.9600   13.0900   79.0030 C.2    60  TYR60       0.2595
     64  O         45.3180   13.6100   77.9510 O.2    60  TYR60      -0.2718
     65  CB        46.5870   13.0170   80.9420 C.3    60  TYR60       0.0548
     66  CG        47.8730   13.2730   80.1860 C.ar   60  TYR60      -0.0200
     67  CD1       48.2010   12.5250   79.0540 C.ar   60  TYR60      -0.0009
     68  CD2       48.7700   14.2610   80.6100 C.ar   60  TYR60      -0.0009
     69  CE1       49.3920   12.7520   78.3630 C.ar   60  TYR60       0.0417
     70  CE2       49.9630   14.4960   79.9280 C.ar   60  TYR60       0.0417
     71  CZ        50.2700   13.7360   78.8060 C.ar   60  TYR60       0.1957
     72  OH        51.4580   13.9460   78.1460 O.3    60  TYR60      -0.2866
     73  N         44.2130   11.9940   79.0320 N.am   61  PHE61      -0.1976
     74  CA        43.7900   11.3560   77.7920 C.3    61  PHE61       0.1639
     75  C         42.4900   11.9250   77.2320 C.2    61  PHE61       0.2290
     76  O         42.3530   12.0840   76.0230 O.2    61  PHE61      -0.2864
     77  CB        43.7210    9.8470   77.9980 C.3    61  PHE61       0.0560
     78  CG        45.0770    9.2080   78.0470 C.ar   61  PHE61      -0.0200
     79  CD1       45.8670    9.1570   76.9070 C.ar   61  PHE61      -0.0042
     80  CD2       45.5960    8.7240   79.2350 C.ar   61  PHE61      -0.0042
     81  CE1       47.1600    8.6350   76.9500 C.ar   61  PHE61      -0.0003
     82  CE2       46.8840    8.2000   79.2880 C.ar   61  PHE61      -0.0003
     83  CZ        47.6680    8.1560   78.1430 C.ar   61  PHE61      -0.0000
     84  N         51.2960   18.6230   75.9030 N.3    69  ASP69      -0.1239
     85  CA        52.3880   18.4770   76.8700 C.3    69  ASP69       0.1674
     86  C         53.7760   18.7750   76.2750 C.2    69  ASP69       0.2266
     87  O         54.2290   18.0760   75.3690 O.2    69  ASP69      -0.2867
     88  CB        52.3620   17.0400   77.4050 C.3    69  ASP69       0.1410
     89  CG        53.3470   16.8050   78.5230 C.2    69  ASP69       0.3668
     90  OD1       54.2450   17.6490   78.7310 O.co2  69  ASP69      -0.2456
     91  OD2       53.2320   15.7580   79.1940 O.co2  69  ASP69      -0.2456
     92  N         56.6080   18.2070   77.4980 N.3    71  VAL71      -0.1231
     93  CA        57.5220   17.1170   77.8140 C.3    71  VAL71       0.1692
     94  C         57.5170   16.0480   76.7250 C.2    71  VAL71       0.2591
     95  O         58.5610   15.5310   76.3510 O.2    71  VAL71      -0.2718
     96  CB        57.1570   16.4680   79.1560 C.3    71  VAL71       0.0266
     97  CG1       58.1680   15.3930   79.5070 C.3    71  VAL71       0.0020
     98  CG2       57.1250   17.5380   80.2450 C.3    71  VAL71       0.0020
     99  N         56.3330   15.7220   76.2260 N.am   72  VAL72      -0.1980
    100  CA        56.1950   14.7270   75.1670 C.3    72  VAL72       0.1595
    101  C         56.7680   15.3010   73.8690 C.2    72  VAL72       0.2287
    102  O         57.4770   14.6140   73.1290 O.2    72  VAL72      -0.2864
    103  CB        54.7100   14.3580   74.9590 C.3    72  VAL72       0.0276
    104  CG1       54.5590   13.4230   73.7680 C.3    72  VAL72       0.0022
    105  CG2       54.1690   13.7010   76.2190 C.3    72  VAL72       0.0022
    106  N         62.6900   19.0110   83.0780 N.3    84  TRP84      -0.1241
    107  CA        61.7100   20.0070   82.6690 C.3    84  TRP84       0.1605
    108  C         61.1000   20.6640   83.9000 C.2    84  TRP84       0.2264
    109  O         61.1810   20.1280   85.0110 O.2    84  TRP84      -0.2867
    110  CB        60.6070   19.3740   81.8160 C.3    84  TRP84       0.0550
    111  CG        60.0360   18.1110   82.3870 C.ar   84  TRP84       0.0003
    112  CD1       60.4870   16.8410   82.1760 C.ar   84  TRP84       0.0946
    113  CD2       58.9330   18.0010   83.2900 C.ar   84  TRP84       0.0152
    114  NE1       59.7380   15.9470   82.8930 N.ar   84  TRP84      -0.2442
    115  CE2       58.7740   16.6300   83.5870 C.ar   84  TRP84       0.0810
    116  CE3       58.0620   18.9300   83.8810 C.ar   84  TRP84       0.0012
    117  CZ2       57.7770   16.1600   84.4510 C.ar   84  TRP84       0.0191
    118  CZ3       57.0720   18.4660   84.7390 C.ar   84  TRP84       0.0001
    119  CH2       56.9370   17.0890   85.0160 C.ar   84  TRP84       0.0015
    120  N         47.9360   23.9820   80.9370 N.3   100  PHE100     -0.1227
    121  CA        48.2750   22.5770   81.0840 C.3   100  PHE100      0.1736
    122  C         49.1100   22.3320   82.3340 C.2   100  PHE100      0.2595
    123  O         48.7320   21.5510   83.1970 O.2   100  PHE100     -0.2718
    124  CB        49.0470   22.0930   79.8580 C.3   100  PHE100      0.0547
    125  CG        49.6370   20.7310   80.0270 C.ar  100  PHE100     -0.0202
    126  CD1       48.8190   19.6130   80.1260 C.ar  100  PHE100     -0.0042
    127  CD2       51.0100   20.5680   80.1420 C.ar  100  PHE100     -0.0042
    128  CE1       49.3610   18.3570   80.3400 C.ar  100  PHE100     -0.0003
    129  CE2       51.5550   19.3130   80.3550 C.ar  100  PHE100     -0.0003
    130  CZ        50.7270   18.2060   80.4560 C.ar  100  PHE100     -0.0000
    131  N         50.2490   23.0080   82.4240 N.am  101  TYR101     -0.1976
    132  CA        51.1350   22.8520   83.5680 C.3   101  TYR101      0.1639
    133  C         50.4680   23.1660   84.9130 C.2   101  TYR101      0.2290
    134  O         50.7400   22.4920   85.9130 O.2   101  TYR101     -0.2864
    135  CB        52.3850   23.7260   83.3890 C.3   101  TYR101      0.0560
    136  CG        53.5810   23.0250   82.7530 C.ar  101  TYR101     -0.0198
    137  CD1       54.1760   21.9160   83.3610 C.ar  101  TYR101     -0.0009
    138  CD2       54.1470   23.5040   81.5730 C.ar  101  TYR101     -0.0009
    139  CE1       55.3160   21.3070   82.8080 C.ar  101  TYR101      0.0417
    140  CE2       55.2840   22.9050   81.0130 C.ar  101  TYR101      0.0417
    141  CZ        55.8640   21.8130   81.6370 C.ar  101  TYR101      0.1957
    142  OH        57.0200   21.2680   81.1140 O.3   101  TYR101     -0.2866
    143  N         48.4920   20.2690   86.1980 N.3   104  ALA104     -0.1245
    144  CA        49.3570   19.1900   86.6500 C.3   104  ALA104      0.1562
    145  C         49.9120   19.4370   88.0450 C.2   104  ALA104      0.2260
    146  O         50.0500   18.5050   88.8420 O.2   104  ALA104     -0.2867
    147  CB        50.4980   18.9940   85.6680 C.3   104  ALA104      0.0290
    148  N         52.8150   17.4060   90.3490 N.3   109  ILE109     -0.1245
    149  CA        53.6800   17.2470   89.1810 C.3   109  ILE109      0.1561
    150  C         54.0320   18.6230   88.6400 C.2   109  ILE109      0.2260
    151  O         53.2650   19.1970   87.8710 O.2   109  ILE109     -0.2867
    152  CB        52.9560   16.4660   88.0650 C.3   109  ILE109      0.0252
    153  CG1       52.4010   15.1550   88.6230 C.3   109  ILE109      0.0019
    154  CG2       53.9110   16.2150   86.9070 C.3   109  ILE109      0.0019
    155  CD1       51.3500   14.5300   87.7390 C.3   109  ILE109      0.0001
    156  N         59.4670    8.8190   83.0190 N.3   126  THR126     -0.1218
    157  CA        59.5450   10.0760   83.7380 C.3   126  THR126      0.1862
    158  C         59.3970    9.9390   85.2420 C.2   126  THR126      0.2287
    159  O         58.5790    9.1640   85.7350 O.2   126  THR126     -0.2866
    160  CB        58.4520   11.0530   83.2480 C.3   126  THR126      0.1770
    161  OG1       58.6580   11.3510   81.8640 O.3   126  THR126     -0.2211
    162  CG2       58.4900   12.3660   84.0590 C.3   126  THR126      0.0375
    163  N         46.4870    3.3290   81.7540 N.3   164  ALA164     -0.1245
    164  CA        45.7520    4.3280   80.9840 C.3   164  ALA164      0.1562
    165  C         46.2120    4.2920   79.5350 C.2   164  ALA164      0.2260
    166  O         47.2870    3.7850   79.2400 O.2   164  ALA164     -0.2867
    167  CB        45.9860    5.7200   81.5680 C.3   164  ALA164      0.0290
@<TRIPOS>BOND
     1   102   101    2
     2   104   103    1
     3   101   100    1
     4   103   100    1
     5   103   105    1
     6   100    99    1
     7    87    86    2
     8    84    85    1
     9    76    75    2
    10    99    94   am
    11    86    85    1
    12    95    94    2
    13     9     8    2
    14    94    93    1
    15     8     7    1
    16    85    88    1
    17    79    81   ar
    18    79    78   ar
    19    81    83   ar
    20    75    74    1
    21    88    89    1
    22    92    93    1
    23    10     7    1
    24    10    11    1
    25    74    77    1
    26    74    73    1
    27    93    96    1
    28    64    63    2
    29    77    78    1
    30    78    80   ar
    31     7     6    1
    32    83    82   ar
    33    72    71    1
    34    69    71   ar
    35    69    67   ar
    36    12    11    1
    37    89    90   ar
    38    89    91   ar
    39    11    13    1
    40    71    70   ar
    41    14    15    1
    42    63    73   am
    43    63    62    1
    44    67    66   ar
    45    96    97    1
    46    96    98    1
    47    80    82   ar
    48   166   165    2
    49   165   164    1
    50   124   125    1
    51   124   121    1
    52    70    68   ar
    53    15    18    1
    54    15    16    1
    55   125   126   ar
    56   125   127   ar
    57   126   128   ar
    58   127   129   ar
    59    66    68   ar
    60    66    65    1
    61   128   130   ar
    62    62    65    1
    63    62    61    1
    64   129   130   ar
    65   120   121    1
    66   164   167    1
    67   164   163    1
    68   140   138   ar
    69   140   141   ar
    70   121   122    1
    71   142   141    1
    72    16    17    2
    73   138   136   ar
    74   141   139   ar
    75   110   111    1
    76   110   107    1
    77   161   160    1
    78    55    54    2
    79   112   111   ar
    80   112   114   ar
    81   122   131   am
    82   122   123    2
    83   111   113   ar
    84   131   132    1
    85   107   106    1
    86   107   108    1
    87     4     3    2
    88   136   137   ar
    89   136   135    1
    90   139   137   ar
    91   114   115   ar
    92   156   157    1
    93     3     2    1
    94   160   157    1
    95   160   162    1
    96    54    53    1
    97   113   115   ar
    98   113   116   ar
    99   135   132    1
   100    51    49   ar
   101    51    50   ar
   102    49    47   ar
   103   132   133    1
   104   115   117   ar
   105   157   158    1
   106    41    40    2
   107   116   118   ar
   108   108   109    2
   109     5     2    1
   110    53    56    1
   111    53    52    1
   112    50    48   ar
   113     2     1    1
   114    47    46   ar
   115    47    45   ar
   116   117   119   ar
   117    46    44   ar
   118    25    23    1
   119   118   119   ar
   120    56    57    1
   121    59    58    2
   122   133   134    2
   123    19    20    1
   124    40    52   am
   125    40    39    1
   126    48    45   ar
   127    23    20    1
   128    23    24    1
   129    35    33   ar
   130    35    36   ar
   131    45    43   ar
   132   158   159    2
   133    37    36    1
   134    57    58    1
   135    44    43   ar
   136    33    31   ar
   137   147   144    1
   138    58    60   am
   139    36    34   ar
   140    20    21    1
   141    43    42    1
   142    39    42    1
   143    39    38    1
   144   143   144    1
   145   144   145    1
   146    31    30    1
   147    31    32   ar
   148   154   152    1
   149    34    32   ar
   150    21    22    2
   151    30    27    1
   152   155   153    1
   153   151   150    2
   154   145   146    2
   155   152   153    1
   156   152   149    1
   157    26    27    1
   158    27    28    1
   159   150   149    1
   160    29    28    2
   161   149   148    1
