@<TRIPOS>MOLECULE
tmp/1l4kA00.pdb
 76 69 0 0 0
SMALL
GASTEIGER

@<TRIPOS>ATOM
      1  N         64.6950   42.9920    7.5480 N.3    77  SER77      -0.1203
      2  CA        64.7960   42.9910    9.0110 C.3    77  SER77       0.2005
      3  C         65.9650   42.0950    9.4310 C.2    77  SER77       0.2460
      4  O         66.1260   40.9960    8.9120 O.2    77  SER77      -0.2732
      5  CB        63.5240   42.4120    9.6630 C.3    77  SER77       0.2103
      6  OG        62.4050   43.2660    9.6010 O.3    77  SER77      -0.2182
      7  N         66.7930   42.5530   10.3760 N.am   78  PRO78      -0.2728
      8  CA        67.9250   41.7490   10.8460 C.3    78  PRO78       0.1401
      9  C         67.3740   40.4220   11.3980 C.2    78  PRO78       0.2269
     10  O         66.2520   40.3820   11.8980 O.2    78  PRO78      -0.2865
     11  CB        68.5220   42.6230   11.9480 C.3    78  PRO78       0.0296
     12  CG        68.2390   44.0090   11.4640 C.3    78  PRO78       0.0237
     13  CD        66.8080   43.8950   10.9910 C.3    78  PRO78       0.0939
     14  N         65.8910   39.9480   15.0900 N.3    81  VAL81      -0.1245
     15  CA        64.6150   40.5350   15.4500 C.3    81  VAL81       0.1561
     16  C         63.6520   39.4510   15.9260 C.2    81  VAL81       0.2260
     17  O         62.8370   39.7010   16.8000 O.2    81  VAL81      -0.2867
     18  CB        64.0020   41.3640   14.2700 C.3    81  VAL81       0.0252
     19  CG1       62.5600   41.7590   14.5870 C.3    81  VAL81       0.0019
     20  CG2       64.8200   42.6500   14.0570 C.3    81  VAL81       0.0019
     21  N         62.0310   40.1450   19.5050 N.3    85  GLN85      -0.1245
     22  CA        60.5940   40.3080   19.5600 C.3    85  GLN85       0.1566
     23  C         59.9480   39.2170   20.3870 C.2    85  GLN85       0.2260
     24  O         58.9700   39.4620   21.0950 O.2    85  GLN85      -0.2867
     25  CB        59.9880   40.2930   18.1590 C.3    85  GLN85       0.0367
     26  CG        59.7290   41.6720   17.5730 C.3    85  GLN85       0.0905
     27  CD        58.8800   42.5550   18.4860 C.2    85  GLN85       0.2608
     28  OE1       59.3680   43.0860   19.4850 O.2    85  GLN85      -0.2717
     29  NE2       57.6100   42.7120   18.1440 N.am   85  GLN85      -0.0878
     30  N         52.1620   34.3840   14.3340 N.3   171  GLU171     -0.1231
     31  CA        53.5600   33.9850   14.1890 C.3   171  GLU171      0.1699
     32  C         54.5330   35.1460   14.3110 C.2   171  GLU171      0.2592
     33  O         54.1380   36.3090   14.4040 O.2   171  GLU171     -0.2718
     34  CB        53.7810   33.3120   12.8310 C.3   171  GLU171      0.0402
     35  CG        53.0910   34.0260   11.6610 C.3   171  GLU171      0.1161
     36  CD        53.4350   35.5120   11.5860 C.2   171  GLU171      0.3649
     37  OE1       54.6120   35.8510   11.3550 O.co2 171  GLU171     -0.2457
     38  OE2       52.5250   36.3530   11.7700 O.co2 171  GLU171     -0.2457
     39  N         55.8140   34.7930   14.2890 N.am  172  LEU172     -0.1980
     40  CA        56.9260   35.7210   14.3740 C.3   172  LEU172      0.1596
     41  C         58.1170   34.9920   13.7490 C.2   172  LEU172      0.2287
     42  O         58.5040   33.9100   14.2110 O.2   172  LEU172     -0.2864
     43  CB        57.2270   36.0520   15.8320 C.3   172  LEU172      0.0297
     44  CG        58.3960   37.0040   16.1130 C.3   172  LEU172      0.0022
     45  CD1       58.0730   38.3760   15.4960 C.3   172  LEU172      0.0001
     46  CD2       58.6270   37.1390   17.6260 C.3   172  LEU172      0.0001
     47  N         61.4230   36.3770   10.8850 N.3   174  MET174     -0.1245
     48  CA        61.9360   37.1640    9.7830 C.3   174  MET174      0.1570
     49  C         62.0620   36.2860    8.5470 C.2   174  MET174      0.2261
     50  O         62.5360   35.1490    8.6220 O.2   174  MET174     -0.2867
     51  CB        63.2880   37.7660   10.1600 C.3   174  MET174      0.0387
     52  CG        63.2560   38.5670   11.4570 C.3   174  MET174      0.0595
     53  SD        62.0080   39.8760   11.4410 S.3   174  MET174     -0.1393
     54  CE        60.7370   39.1710   12.5350 C.3   174  MET174      0.0692
     55  N         57.6670   42.5990    5.3280 N.3   200  ALA200     -0.1245
     56  CA        57.9300   43.7000    6.2520 C.3   200  ALA200      0.1562
     57  C         58.7830   44.8000    5.5920 C.2   200  ALA200      0.2260
     58  O         59.9860   44.9220    5.8450 O.2   200  ALA200     -0.2867
     59  CB        58.6270   43.1710    7.5250 C.3   200  ALA200      0.0290
     60  N         51.2570   43.3170   10.0640 N.3   312  LEU312     -0.1245
     61  CA        52.2430   43.1730   11.1170 C.3   312  LEU312      0.1561
     62  C         52.5010   41.7050   11.4490 C.2   312  LEU312      0.2260
     63  O         53.6400   41.3080   11.6630 O.2   312  LEU312     -0.2867
     64  CB        51.7620   43.8930   12.3800 C.3   312  LEU312      0.0270
     65  CG        52.5030   43.6060   13.6960 C.3   312  LEU312      0.0019
     66  CD1       53.9690   44.0320   13.5970 C.3   312  LEU312      0.0001
     67  CD2       51.8080   44.3540   14.8360 C.3   312  LEU312      0.0001
     68  N         52.0040   38.4330   13.9920 N.3   314  GLU314     -0.1245
     69  CA        51.9350   38.2220   15.4430 C.3   314  GLU314      0.1567
     70  C         50.5910   37.7280   15.9590 C.2   314  GLU314      0.2260
     71  O         50.4560   37.3620   17.1330 O.2   314  GLU314     -0.2867
     72  CB        52.2540   39.5200   16.1900 C.3   314  GLU314      0.0388
     73  CG        53.6090   40.1200   15.8900 C.3   314  GLU314      0.1160
     74  CD        53.9070   41.3260   16.7530 C.2   314  GLU314      0.3649
     75  OE1       53.1240   41.5900   17.6990 O.co2 314  GLU314     -0.2457
     76  OE2       54.9290   41.9940   16.4910 O.co2 314  GLU314     -0.2457
@<TRIPOS>BOND
     1    55    56    1
     2    57    58    2
     3    57    56    1
     4    56    59    1
     5     1     2    1
     6    49    50    2
     7    49    48    1
     8     4     3    2
     9     2     3    1
    10     2     5    1
    11     3     7   am
    12     6     5    1
    13    48    51    1
    14    48    47    1
    15    60    61    1
    16    51    52    1
    17     7     8    1
    18     7    13    1
    19     8     9    1
    20     8    11    1
    21    13    12    1
    22    61    62    1
    23    61    64    1
    24    37    36   ar
    25     9    10    2
    26    53    52    1
    27    53    54    1
    28    62    63    2
    29    12    11    1
    30    36    35    1
    31    36    38   ar
    32    35    34    1
    33    64    65    1
    34    34    31    1
    35    66    65    1
    36    65    67    1
    37    41    42    2
    38    41    40    1
    39    68    69    1
    40    20    18    1
    41    31    32    1
    42    31    30    1
    43    18    19    1
    44    18    15    1
    45    39    32   am
    46    39    40    1
    47    32    33    2
    48    40    43    1
    49    14    15    1
    50    69    70    1
    51    69    72    1
    52    15    16    1
    53    45    44    1
    54    43    44    1
    55    73    72    1
    56    73    74    1
    57    16    17    2
    58    70    71    2
    59    44    46    1
    60    76    74   ar
    61    74    75   ar
    62    26    25    1
    63    26    27    1
    64    29    27   am
    65    25    22    1
    66    27    28    2
    67    21    22    1
    68    22    23    1
    69    23    24    2
