@<TRIPOS>MOLECULE
tmp/1l5gB00.pdb
 92 88 0 0 0
SMALL
GASTEIGER

@<TRIPOS>ATOM
      1  N         21.0230   31.9940   38.9660 N.3    67  SER67      -0.1202
      2  CA        21.4080   33.3980   38.9220 C.3    67  SER67       0.2020
      3  C         21.9080   33.8240   40.3000 C.2    67  SER67       0.2619
      4  O         21.5180   33.2320   41.3100 O.2    67  SER67      -0.2717
      5  CB        20.2150   34.2580   38.5260 C.3    67  SER67       0.2103
      6  OG        19.2690   34.3120   39.5770 O.3    67  SER67      -0.2182
      7  N         22.7220   34.8810   40.3420 N.am   68  TYR68      -0.1961
      8  CA        23.2930   35.3660   41.5980 C.3    68  TYR68       0.1771
      9  C         22.2420   35.8770   42.5860 C.2    68  TYR68       0.2620
     10  O         21.9720   37.0720   42.6490 O.2    68  TYR68      -0.2715
     11  CB        24.3410   36.4620   41.3210 C.3    68  TYR68       0.0574
     12  CG        25.3100   36.7440   42.4670 C.ar   68  TYR68      -0.0198
     13  CD1       26.6400   36.3200   42.4050 C.ar   68  TYR68      -0.0009
     14  CD2       24.8880   37.4140   43.6200 C.ar   68  TYR68      -0.0009
     15  CE1       27.5170   36.5550   43.4630 C.ar   68  TYR68       0.0417
     16  CE2       25.7550   37.6510   44.6780 C.ar   68  TYR68       0.0417
     17  CZ        27.0650   37.2200   44.5960 C.ar   68  TYR68       0.1957
     18  OH        27.9170   37.4570   45.6530 O.3    68  TYR68      -0.2866
     19  N         21.6670   34.9720   43.3670 N.am   69  SER69      -0.1950
     20  CA        20.6550   35.3050   44.3750 C.3    69  SER69       0.1924
     21  C         20.2380   33.9850   44.9940 C.2    69  SER69       0.2314
     22  O         19.6490   33.9250   46.0620 O.2    69  SER69      -0.2863
     23  CB        19.4510   36.0400   43.7620 C.3    69  SER69       0.2116
     24  OG        19.0230   35.4480   42.5470 O.3    69  SER69      -0.2180
     25  N         22.7720   31.5880   48.2710 N.3    72  ASP72      -0.1239
     26  CA        22.5020   31.1030   49.6190 C.3    72  ASP72       0.1674
     27  C         21.7700   29.7530   49.6840 C.2    72  ASP72       0.2266
     28  O         21.7990   29.0660   50.7160 O.2    72  ASP72      -0.2867
     29  CB        21.7180   32.1660   50.4000 C.3    72  ASP72       0.1410
     30  CG        20.7500   32.9560   49.5240 C.2    72  ASP72       0.3668
     31  OD1       20.4550   32.5300   48.3780 O.co2  72  ASP72      -0.2456
     32  OD2       20.2800   34.0200   49.9890 O.co2  72  ASP72      -0.2456
     33  N         32.2000   43.8570   41.7470 N.3   126  MET126     -0.1245
     34  CA        32.0100   43.5460   43.1620 C.3   126  MET126      0.1570
     35  C         33.0180   42.4630   43.5460 C.2   126  MET126      0.2261
     36  O         33.6140   42.5060   44.6250 O.2   126  MET126     -0.2867
     37  CB        30.5850   43.0430   43.4370 C.3   126  MET126      0.0387
     38  CG        30.1580   41.8260   42.6160 C.3   126  MET126      0.0595
     39  SD        28.7760   40.8930   43.3370 S.3   126  MET126     -0.1393
     40  CE        27.5710   42.2050   43.6190 C.3   126  MET126      0.0692
     41  N         24.9610   35.5320   37.0260 N.3   160  ARG160     -0.1231
     42  CA        24.4400   36.8220   37.4690 C.3   160  ARG160      0.1694
     43  C         23.9700   37.7490   36.3690 C.2   160  ARG160      0.2592
     44  O         24.6380   37.8890   35.3450 O.2   160  ARG160     -0.2718
     45  CB        25.5190   37.5590   38.2690 C.3   160  ARG160      0.0321
     46  CG        25.0310   38.7380   39.1040 C.3   160  ARG160      0.0489
     47  CD        25.7760   40.0010   38.7430 C.3   160  ARG160      0.2205
     48  NE        25.7060   41.0010   39.8050 N.pl3 160  ARG160     -0.0865
     49  CZ        26.4190   42.1260   39.8130 C.cat 160  ARG160      0.5346
     50  NH1       27.2480   42.3940   38.8020 N.pl3 160  ARG160      0.1354
     51  NH2       26.3400   42.9570   40.8460 N.pl3 160  ARG160      0.1354
     52  N         22.8130   38.3770   36.5830 N.am  161  ASN161     -0.1960
     53  CA        22.3050   39.3550   35.6350 C.3   161  ASN161      0.1819
     54  C         21.7370   40.5680   36.3890 C.2   161  ASN161      0.2621
     55  O         21.9810   40.6940   37.5830 O.2   161  ASN161     -0.2715
     56  CB        21.3580   38.7340   34.5980 C.3   161  ASN161      0.1195
     57  CG        20.0820   38.2070   35.1900 C.2   161  ASN161      0.2630
     58  OD1       19.9280   38.1140   36.3980 O.2   161  ASN161     -0.2716
     59  ND2       19.1480   37.8680   34.3250 N.am  161  ASN161     -0.0877
     60  N         21.0430   41.4880   35.7240 N.am  162  ARG162     -0.1963
     61  CA        20.5490   42.6630   36.4390 C.3   162  ARG162      0.1729
     62  C         19.0740   42.7730   36.7750 C.2   162  ARG162      0.2616
     63  O         18.7030   43.5210   37.6790 O.2   162  ARG162     -0.2715
     64  CB        20.9920   43.9570   35.7450 C.3   162  ARG162      0.0348
     65  CG        21.5880   43.7980   34.3490 C.3   162  ARG162      0.0492
     66  CD        21.9780   45.1630   33.7670 C.3   162  ARG162      0.2205
     67  NE        22.7970   45.9460   34.6920 N.pl3 162  ARG162     -0.0865
     68  CZ        23.9860   46.4550   34.3910 C.cat 162  ARG162      0.5346
     69  NH1       24.5020   46.2650   33.1840 N.pl3 162  ARG162      0.1354
     70  NH2       24.6590   47.1520   35.2990 N.pl3 162  ARG162      0.1354
     71  N         18.2350   42.0500   36.0460 N.am  163  ASP163     -0.1957
     72  CA        16.7930   42.0930   36.2440 C.3   163  ASP163      0.1840
     73  C         16.3360   41.2070   37.3920 C.2   163  ASP163      0.2621
     74  O         16.8270   40.0900   37.5270 O.2   163  ASP163     -0.2715
     75  CB        16.1350   41.5960   34.9750 C.3   163  ASP163      0.1450
     76  CG        15.1160   42.5460   34.4420 C.2   163  ASP163      0.3671
     77  OD1       15.1130   42.7160   33.2160 O.co2 163  ASP163     -0.2456
     78  OD2       14.3130   43.1080   35.2230 O.co2 163  ASP163     -0.2456
     79  N         15.3960   41.6860   38.2090 N.am  164  ALA164     -0.1977
     80  CA        14.8730   40.8670   39.3070 C.3   164  ALA164      0.1597
     81  C         14.1820   39.6560   38.6880 C.2   164  ALA164      0.2287
     82  O         14.4720   38.5330   39.0670 O.2   164  ALA164     -0.2864
     83  CB        13.9210   41.6560   40.1900 C.3   164  ALA164      0.0319
     84  N         13.4410   36.6530   36.2990 N.3   166  GLU166     -0.1245
     85  CA        14.4490   35.8250   35.6530 C.3   166  GLU166      0.1567
     86  C         14.0740   34.9620   34.4530 C.2   166  GLU166      0.2260
     87  O         14.9170   34.2290   33.9280 O.2   166  GLU166     -0.2867
     88  CB        15.1040   34.9550   36.7230 C.3   166  GLU166      0.0388
     89  CG        16.6150   35.1130   36.8480 C.3   166  GLU166      0.1160
     90  CD        17.0780   36.4660   37.3810 C.2   166  GLU166      0.3649
     91  OE1       18.2340   36.5440   37.8390 O.co2 166  GLU166     -0.2457
     92  OE2       16.3190   37.4510   37.3380 O.co2 166  GLU166     -0.2457
@<TRIPOS>BOND
     1    69    68    1
     2    77    76   ar
     3    66    65    1
     4    66    67    1
     5    87    86    2
     6    59    57   am
     7    65    64    1
     8    68    67    2
     9    68    70    1
    10    76    75    1
    11    76    78   ar
    12    86    85    1
    13    56    57    1
    14    56    53    1
    15    75    72    1
    16    57    58    2
    17    44    43    2
    18    53    54    1
    19    53    52    1
    20    85    84    1
    21    85    88    1
    22    60    54   am
    23    60    61    1
    24    64    61    1
    25    71    72    1
    26    71    62   am
    27    72    73    1
    28    43    52   am
    29    43    42    1
    30    54    55    2
    31    61    62    1
    32    88    89    1
    33    62    63    2
    34    89    90    1
    35    41    42    1
    36    92    90   ar
    37    90    91   ar
    38    73    74    2
    39    73    79   am
    40    42    45    1
    41    79    80    1
    42    45    46    1
    43     5     2    1
    44     5     6    1
    45    81    82    2
    46    81    80    1
    47    47    46    1
    48    47    48    1
    49    50    49    1
    50     2     1    1
    51     2     3    1
    52    80    83    1
    53    48    49    2
    54    49    51    1
    55     3     7   am
    56     3     4    2
    57     7     8    1
    58    11     8    1
    59    11    12    1
    60     8     9    1
    61    33    34    1
    62    13    12   ar
    63    13    15   ar
    64    12    14   ar
    65    24    23    1
    66     9    10    2
    67     9    19   am
    68    38    39    1
    69    38    37    1
    70    34    37    1
    71    34    35    1
    72    39    40    1
    73    19    20    1
    74    15    17   ar
    75    35    36    2
    76    14    16   ar
    77    23    20    1
    78    20    21    1
    79    17    16   ar
    80    17    18    1
    81    21    22    2
    82    25    26    1
    83    31    30   ar
    84    30    32   ar
    85    30    29    1
    86    26    27    1
    87    26    29    1
    88    27    28    2
