@<TRIPOS>MOLECULE
tmp/1l5gA03.pdb
 108 104 0 0 0
SMALL
GASTEIGER

@<TRIPOS>ATOM
      1  N         11.0620   50.2250   37.0490 N.3   180  GLN180     -0.1245
      2  CA         9.8460   50.7510   37.6120 C.3   180  GLN180      0.1566
      3  C          9.1180   51.3890   36.4490 C.2   180  GLN180      0.2260
      4  O          7.9460   51.1240   36.2110 O.2   180  GLN180     -0.2867
      5  CB        10.1710   51.8480   38.5980 C.3   180  GLN180      0.0367
      6  CG        11.0890   51.4580   39.6980 C.3   180  GLN180      0.0905
      7  CD        10.6430   52.0780   40.9910 C.2   180  GLN180      0.2608
      8  OE1       10.9280   51.5650   42.0650 O.2   180  GLN180     -0.2717
      9  NE2        9.8960   53.1740   40.8940 N.am  180  GLN180     -0.0878
     10  N         10.4300   55.4740   42.7770 N.3   213  ALA213     -0.1231
     11  CA         9.5060   55.0940   43.8380 C.3   213  ALA213      0.1694
     12  C         10.0840   53.9650   44.6880 C.2   213  ALA213      0.2591
     13  O         11.2340   53.5520   44.4830 O.2   213  ALA213     -0.2718
     14  CB         8.1740   54.6830   43.2470 C.3   213  ALA213      0.0304
     15  N          9.2770   53.4780   45.6370 N.am  214  GLN214     -0.1979
     16  CA         9.6740   52.4100   46.5500 C.3   214  GLN214      0.1601
     17  C         10.0050   51.0970   45.8250 C.2   214  GLN214      0.2287
     18  O          9.3580   50.7390   44.8350 O.2   214  GLN214     -0.2864
     19  CB         8.5910   52.2180   47.6150 C.3   214  GLN214      0.0394
     20  CG         8.4510   53.4220   48.5570 C.3   214  GLN214      0.0908
     21  CD         7.0230   53.9570   48.6680 C.2   214  GLN214      0.2608
     22  OE1        6.1230   53.5310   47.9450 O.2   214  GLN214     -0.2717
     23  NE2        6.8190   54.9130   49.5690 N.am  214  GLN214     -0.0878
     24  N          8.0250   48.5480   43.8470 N.3   217  PHE217     -0.1241
     25  CA         7.4870   48.9650   42.5540 C.3   217  PHE217      0.1605
     26  C          8.4470   48.7120   41.4170 C.2   217  PHE217      0.2264
     27  O          8.2530   49.2380   40.3380 O.2   217  PHE217     -0.2867
     28  CB         7.1220   50.4430   42.5680 C.3   217  PHE217      0.0534
     29  CG         5.9520   50.7650   43.4370 C.ar  217  PHE217     -0.0203
     30  CD1        4.6520   50.5640   42.9750 C.ar  217  PHE217     -0.0042
     31  CD2        6.1360   51.2730   44.7230 C.ar  217  PHE217     -0.0042
     32  CE1        3.5380   50.8700   43.7880 C.ar  217  PHE217     -0.0003
     33  CE2        5.0290   51.5830   45.5450 C.ar  217  PHE217     -0.0003
     34  CZ         3.7280   51.3810   45.0750 C.ar  217  PHE217     -0.0000
     35  N          6.4970   50.9230   33.8260 N.3   222  LEU222     -0.1245
     36  CA         5.6530   52.0810   33.4780 C.3   222  LEU222      0.1561
     37  C          6.2060   52.7310   32.2040 C.2   222  LEU222      0.2260
     38  O          7.4190   52.8970   32.0600 O.2   222  LEU222     -0.2867
     39  CB         5.6030   53.1080   34.6240 C.3   222  LEU222      0.0270
     40  CG         5.1040   54.5410   34.3720 C.3   222  LEU222      0.0019
     41  CD1        3.7960   54.5680   33.6210 C.3   222  LEU222      0.0001
     42  CD2        4.9820   55.2670   35.6890 C.3   222  LEU222      0.0001
     43  N         -1.5940   47.4090   35.3020 N.3   252  MET252     -0.1245
     44  CA        -2.2890   48.6020   35.7570 C.3   252  MET252      0.1570
     45  C         -2.1470   49.6720   34.6960 C.2   252  MET252      0.2261
     46  O         -1.2830   49.5760   33.8330 O.2   252  MET252     -0.2867
     47  CB        -1.6600   49.1290   37.0470 C.3   252  MET252      0.0387
     48  CG        -2.2300   48.5810   38.3330 C.3   252  MET252      0.0595
     49  SD        -1.4320   49.3160   39.7930 S.3   252  MET252     -0.1393
     50  CE        -2.3350   50.8040   39.9360 C.3   252  MET252      0.0692
     51  N         -1.9320   53.7980   34.6840 N.3   254  TYR254     -0.1241
     52  CA        -1.8450   55.0600   35.4070 C.3   254  TYR254      0.1605
     53  C         -2.2410   56.2550   34.5950 C.2   254  TYR254      0.2264
     54  O         -1.7870   56.4020   33.4660 O.2   254  TYR254     -0.2867
     55  CB        -0.4120   55.3230   35.8170 C.3   254  TYR254      0.0534
     56  CG         0.1460   54.3690   36.8130 C.ar  254  TYR254     -0.0201
     57  CD1       -0.6830   53.5390   37.5570 C.ar  254  TYR254     -0.0009
     58  CD2        1.5100   54.3100   37.0320 C.ar  254  TYR254     -0.0009
     59  CE1       -0.1540   52.6700   38.5040 C.ar  254  TYR254      0.0417
     60  CE2        2.0490   53.4470   37.9720 C.ar  254  TYR254      0.0417
     61  CZ         1.2180   52.6290   38.7070 C.ar  254  TYR254      0.1957
     62  OH         1.7620   51.7800   39.6460 O.3   254  TYR254     -0.2866
     63  N         -2.1760   60.4340   34.7160 N.3   256  TYR256     -0.1241
     64  CA        -1.6020   61.6060   35.3720 C.3   256  TYR256      0.1605
     65  C         -2.0930   62.9490   34.8690 C.2   256  TYR256      0.2264
     66  O         -2.7240   63.0600   33.8170 O.2   256  TYR256     -0.2867
     67  CB        -0.0850   61.6110   35.2480 C.3   256  TYR256      0.0534
     68  CG         0.6140   60.5100   35.9840 C.ar  256  TYR256     -0.0201
     69  CD1        0.6320   59.2100   35.4890 C.ar  256  TYR256     -0.0009
     70  CD2        1.3200   60.7770   37.1400 C.ar  256  TYR256     -0.0009
     71  CE1        1.3480   58.2130   36.1320 C.ar  256  TYR256      0.0417
     72  CE2        2.0320   59.7890   37.7880 C.ar  256  TYR256      0.0417
     73  CZ         2.0450   58.5140   37.2820 C.ar  256  TYR256      0.1957
     74  OH         2.7640   57.5460   37.9360 O.3   256  TYR256     -0.2866
     75  N         -0.8520   61.9980   40.0770 N.3   263  SER263     -0.1202
     76  CA        -1.7490   60.8930   39.7140 C.3   263  SER263      0.2020
     77  C         -3.2470   61.2040   39.7720 C.2   263  SER263      0.2619
     78  O         -3.7460   61.6890   40.7800 O.2   263  SER263     -0.2717
     79  CB        -1.4250   59.6290   40.5310 C.3   263  SER263      0.2103
     80  OG        -1.8650   58.4530   39.8590 O.3   263  SER263     -0.2182
     81  N         -3.9420   60.9460   38.6660 N.am  264  LEU264     -0.1965
     82  CA        -5.3820   61.1610   38.5620 C.3   264  LEU264      0.1728
     83  C         -6.1090   59.8640   38.9000 C.2   264  LEU264      0.2616
     84  O         -6.7000   59.7420   39.9660 O.2   264  LEU264     -0.2715
     85  CB        -5.7740   61.5920   37.1450 C.3   264  LEU264      0.0311
     86  CG        -6.0820   63.0490   36.7750 C.3   264  LEU264      0.0022
     87  CD1       -7.1090   63.6290   37.7330 C.3   264  LEU264      0.0001
     88  CD2       -4.8340   63.8760   36.7950 C.3   264  LEU264      0.0001
     89  N         -6.0490   58.8900   37.9950 N.am  265  TYR265     -0.1960
     90  CA        -6.7150   57.6030   38.2060 C.3   265  TYR265      0.1771
     91  C         -5.8170   56.3890   37.9380 C.2   265  TYR265      0.2619
     92  O         -4.7000   56.5130   37.4280 O.2   265  TYR265     -0.2715
     93  CB        -7.9890   57.5160   37.3530 C.3   265  TYR265      0.0574
     94  CG        -8.8560   58.7560   37.4480 C.ar  265  TYR265     -0.0198
     95  CD1       -9.7360   58.9510   38.5220 C.ar  265  TYR265     -0.0009
     96  CD2       -8.7710   59.7620   36.4830 C.ar  265  TYR265     -0.0009
     97  CE1      -10.5110   60.1240   38.6310 C.ar  265  TYR265      0.0417
     98  CE2       -9.5350   60.9360   36.5810 C.ar  265  TYR265      0.0417
     99  CZ       -10.3980   61.1100   37.6540 C.ar  265  TYR265      0.1957
    100  OH       -11.1220   62.2800   37.7450 O.3   265  TYR265     -0.2866
    101  N         -6.3170   55.2190   38.3170 N.am  266  ASN266     -0.1972
    102  CA        -5.6100   53.9590   38.1410 C.3   266  ASN266      0.1688
    103  C         -6.5860   52.8740   37.6890 C.2   266  ASN266      0.2292
    104  O         -7.7860   52.9230   37.9780 O.2   266  ASN266     -0.2864
    105  CB        -4.9770   53.4960   39.4570 C.3   266  ASN266      0.1181
    106  CG        -3.6890   54.2270   39.8020 C.2   266  ASN266      0.2629
    107  OD1       -3.1470   54.9940   39.0000 O.2   266  ASN266     -0.2716
    108  ND2       -3.2060   53.9570   41.0200 N.am  266  ASN266     -0.0877
@<TRIPOS>BOND
     1    38    37    2
     2    37    36    1
     3    54    53    2
     4    36    35    1
     5    36    39    1
     6    41    40    1
     7    66    65    2
     8    46    45    2
     9    40    39    1
    10    40    42    1
    11    53    52    1
    12    51    52    1
    13    45    44    1
    14    63    64    1
    15    65    64    1
    16    67    64    1
    17    67    68    1
    18    43    44    1
    19    52    55    1
    20    69    68   ar
    21    69    71   ar
    22    44    47    1
    23    55    56    1
    24    68    70   ar
    25    71    73   ar
    26     4     3    2
    27     3     2    1
    28    96    98   ar
    29    96    94   ar
    30    98    99   ar
    31    86    88    1
    32    86    85    1
    33    86    87    1
    34    56    58   ar
    35    56    57   ar
    36    58    60   ar
    37    47    48    1
    38     1     2    1
    39    70    72   ar
    40    85    82    1
    41    73    72   ar
    42    73    74    1
    43    93    94    1
    44    93    90    1
    45    92    91    2
    46    94    95   ar
    47    57    59   ar
    48     2     5    1
    49    99   100    1
    50    99    97   ar
    51   103   104    2
    52   103   102    1
    53    91    90    1
    54    91   101   am
    55    60    61   ar
    56    89    90    1
    57    89    83   am
    58   102   101    1
    59   102   105    1
    60    48    49    1
    61    59    61   ar
    62    95    97   ar
    63    82    81    1
    64    82    83    1
    65     5     6    1
    66    81    77   am
    67    61    62    1
    68    83    84    2
    69   107   106    2
    70   105   106    1
    71     6     7    1
    72    76    77    1
    73    76    75    1
    74    76    79    1
    75    77    78    2
    76    49    50    1
    77   106   108   am
    78    80    79    1
    79    27    26    2
    80     9     7   am
    81     7     8    2
    82    26    25    1
    83    25    28    1
    84    25    24    1
    85    28    29    1
    86    10    11    1
    87    30    29   ar
    88    30    32   ar
    89    14    11    1
    90    29    31   ar
    91    32    34   ar
    92    11    12    1
    93    13    12    2
    94    12    15   am
    95    31    33   ar
    96    18    17    2
    97    34    33   ar
    98    15    16    1
    99    17    16    1
   100    16    19    1
   101    19    20    1
   102    22    21    2
   103    20    21    1
   104    21    23   am
