@<TRIPOS>MOLECULE
tmp/1l5gA00.pdb
 87 86 0 0 0
SMALL
GASTEIGER

@<TRIPOS>ATOM
      1  N         19.6280   52.3720   38.5890 N.3   150  ASP150     -0.1239
      2  CA        19.0770   52.8150   39.8500 C.3   150  ASP150      0.1674
      3  C         18.4300   54.1160   39.4550 C.2   150  ASP150      0.2266
      4  O         17.3730   54.4980   39.9530 O.2   150  ASP150     -0.2867
      5  CB        20.2360   53.0290   40.8200 C.3   150  ASP150      0.1410
      6  CG        19.7990   53.6090   42.1410 C.2   150  ASP150      0.3668
      7  OD1       20.5420   54.4710   42.6590 O.co2 150  ASP150     -0.2456
      8  OD2       18.7320   53.2020   42.6580 O.co2 150  ASP150     -0.2456
      9  N         15.1270   53.4750   36.9060 N.3   177  PHE177     -0.1227
     10  CA        15.3120   52.9930   38.2650 C.3   177  PHE177      0.1736
     11  C         15.4890   51.4970   38.1010 C.2   177  PHE177      0.2595
     12  O         16.3880   51.0770   37.3440 O.2   177  PHE177     -0.2718
     13  CB        14.1040   53.4220   39.0950 C.3   177  PHE177      0.0547
     14  CG        13.6650   54.8330   38.7710 C.ar  177  PHE177     -0.0202
     15  CD1       12.3450   55.1180   38.4520 C.ar  177  PHE177     -0.0042
     16  CD2       14.6190   55.8560   38.6410 C.ar  177  PHE177     -0.0042
     17  CE1       11.9840   56.3950   37.9970 C.ar  177  PHE177     -0.0003
     18  CE2       14.2650   57.1280   38.1910 C.ar  177  PHE177     -0.0003
     19  CZ        12.9540   57.3970   37.8680 C.ar  177  PHE177     -0.0000
     20  N         14.6740   50.6790   38.7510 N.am  178  TYR178     -0.1962
     21  CA        14.8650   49.2620   38.5330 C.3   178  TYR178      0.1771
     22  C         13.6780   48.6830   37.7770 C.2   178  TYR178      0.2620
     23  O         12.9840   47.7900   38.2450 O.2   178  TYR178     -0.2715
     24  CB        15.1450   48.5400   39.8420 C.3   178  TYR178      0.0574
     25  CG        16.6130   48.4450   40.2070 C.ar  178  TYR178     -0.0198
     26  CD1       17.4760   47.6110   39.4930 C.ar  178  TYR178     -0.0009
     27  CD2       17.1280   49.1440   41.3000 C.ar  178  TYR178     -0.0009
     28  CE1       18.8180   47.4710   39.8620 C.ar  178  TYR178      0.0417
     29  CE2       18.4530   49.0210   41.6880 C.ar  178  TYR178      0.0417
     30  CZ        19.2980   48.1800   40.9660 C.ar  178  TYR178      0.1957
     31  OH        20.6200   48.0450   41.3430 O.3   178  TYR178     -0.2866
     32  N         13.4880   49.1940   36.5690 N.am  179  TRP179     -0.1960
     33  CA        12.4040   48.8000   35.6900 C.3   179  TRP179      0.1771
     34  C         11.0510   49.1780   36.2380 C.2   179  TRP179      0.2619
     35  O         10.0300   48.5640   35.9290 O.2   179  TRP179     -0.2715
     36  CB        12.4860   47.3320   35.3360 C.3   179  TRP179      0.0590
     37  CG        13.6150   47.1030   34.4740 C.ar  179  TRP179      0.0006
     38  CD1       13.6370   47.1870   33.1170 C.ar  179  TRP179      0.0946
     39  CD2       14.9530   46.8600   34.8930 C.ar  179  TRP179      0.0152
     40  NE1       14.9200   47.0210   32.6600 N.ar  179  TRP179     -0.2442
     41  CE2       15.7490   46.8120   33.7330 C.ar  179  TRP179      0.0810
     42  CE3       15.5620   46.6660   36.1360 C.ar  179  TRP179      0.0012
     43  CZ2       17.1290   46.5900   33.7830 C.ar  179  TRP179      0.0191
     44  CZ3       16.9310   46.4430   36.1810 C.ar  179  TRP179      0.0001
     45  CH2       17.6960   46.4010   35.0110 C.ar  179  TRP179      0.0015
     46  N         11.0620   50.2250   37.0490 N.am  180  GLN180     -0.1977
     47  CA         9.8460   50.7510   37.6120 C.3   180  GLN180      0.1601
     48  C          9.1180   51.3890   36.4490 C.2   180  GLN180      0.2287
     49  O          7.9460   51.1240   36.2110 O.2   180  GLN180     -0.2864
     50  CB        10.1710   51.8480   38.5980 C.3   180  GLN180      0.0394
     51  CG        11.0890   51.4580   39.6980 C.3   180  GLN180      0.0908
     52  CD        10.6430   52.0780   40.9910 C.2   180  GLN180      0.2608
     53  OE1       10.9280   51.5650   42.0650 O.2   180  GLN180     -0.2717
     54  NE2        9.8960   53.1740   40.8940 N.am  180  GLN180     -0.0878
     55  N         11.6120   58.3410   40.9530 N.3   212  THR212     -0.1203
     56  CA        11.7820   56.9910   41.4550 C.3   212  THR212      0.1994
     57  C         10.8120   56.7340   42.6030 C.2   212  THR212      0.2617
     58  O         10.4330   57.6550   43.3250 O.2   212  THR212     -0.2717
     59  CB        13.1990   56.7760   41.9710 C.3   212  THR212      0.1784
     60  OG1       13.3900   55.3930   42.2670 O.3   212  THR212     -0.2211
     61  CG2       13.4120   57.5530   43.2350 C.3   212  THR212      0.0376
     62  N         10.4300   55.4740   42.7770 N.am  213  ALA213     -0.1979
     63  CA         9.5060   55.0940   43.8380 C.3   213  ALA213      0.1597
     64  C         10.0840   53.9650   44.6880 C.2   213  ALA213      0.2287
     65  O         11.2340   53.5520   44.4830 O.2   213  ALA213     -0.2864
     66  CB         8.1740   54.6830   43.2470 C.3   213  ALA213      0.0319
     67  N         11.0290   50.4040   46.3260 N.3   215  ALA215     -0.1245
     68  CA        11.5390   49.1390   45.7770 C.3   215  ALA215      0.1562
     69  C         10.5160   48.1110   45.3180 C.2   215  ALA215      0.2260
     70  O         10.7450   47.4110   44.3400 O.2   215  ALA215     -0.2867
     71  CB        12.4770   48.4970   46.7710 C.3   215  ALA215      0.0290
     72  N          9.4830   47.9090   41.6510 N.3   218  ASP218     -0.1225
     73  CA        10.4650   47.6150   40.6050 C.3   218  ASP218      0.1805
     74  C          9.8560   46.6860   39.5800 C.2   218  ASP218      0.2597
     75  O          8.8560   46.0340   39.8500 O.2   218  ASP218     -0.2718
     76  CB        11.7220   46.9620   41.1800 C.3   218  ASP218      0.1424
     77  CG        12.5280   47.8830   42.1030 C.2   218  ASP218      0.3668
     78  OD1       13.5920   47.4380   42.5740 O.co2 218  ASP218     -0.2456
     79  OD2       12.1160   49.0310   42.3750 O.co2 218  ASP218     -0.2456
     80  N         10.4450   46.6590   38.3930 N.am  219  ASP219     -0.1974
     81  CA        10.0020   45.8110   37.2870 C.3   219  ASP219      0.1709
     82  C          8.5280   45.9220   36.9300 C.2   219  ASP219      0.2293
     83  O          7.9010   44.9530   36.5080 O.2   219  ASP219     -0.2864
     84  CB        10.3780   44.3640   37.5560 C.3   219  ASP219      0.1436
     85  CG        11.6990   44.2420   38.2630 C.2   219  ASP219      0.3671
     86  OD1       12.7520   44.1680   37.6020 O.co2 219  ASP219     -0.2456
     87  OD2       11.6850   44.2470   39.4970 O.co2 219  ASP219     -0.2456
@<TRIPOS>BOND
     1    40    38   ar
     2    40    41   ar
     3    38    37   ar
     4    41    43   ar
     5    41    39   ar
     6    43    45   ar
     7    37    39   ar
     8    37    36    1
     9    39    42   ar
    10    45    44   ar
    11    36    33    1
    12    33    34    1
    13    33    32    1
    14    35    34    2
    15    42    44   ar
    16    49    48    2
    17    34    46   am
    18    48    47    1
    19    83    82    2
    20    32    22   am
    21     9    10    1
    22    82    81    1
    23    46    47    1
    24    81    84    1
    25    81    80    1
    26    12    11    2
    27    84    85    1
    28    86    85   ar
    29    47    50    1
    30    22    23    2
    31    22    21    1
    32    19    17   ar
    33    19    18   ar
    34    17    15   ar
    35    11    10    1
    36    11    20   am
    37    18    16   ar
    38    85    87   ar
    39    10    13    1
    40    80    74   am
    41    15    14   ar
    42    21    20    1
    43    21    24    1
    44     1     2    1
    45    50    51    1
    46    16    14   ar
    47    14    13    1
    48     3     2    1
    49     3     4    2
    50    26    28   ar
    51    26    25   ar
    52    74    75    2
    53    74    73    1
    54    51    52    1
    55    24    25    1
    56     2     5    1
    57    28    30   ar
    58    25    27   ar
    59    73    76    1
    60    73    72    1
    61     5     6    1
    62    54    52   am
    63    55    56    1
    64    30    31    1
    65    30    29   ar
    66    52    53    2
    67    76    77    1
    68    27    29   ar
    69    56    59    1
    70    56    57    1
    71    59    60    1
    72    59    61    1
    73    77    79   ar
    74    77    78   ar
    75     6     8   ar
    76     6     7   ar
    77    57    62   am
    78    57    58    2
    79    62    63    1
    80    66    63    1
    81    63    64    1
    82    70    69    2
    83    65    64    2
    84    69    68    1
    85    68    67    1
    86    68    71    1
