@<TRIPOS>MOLECULE
tmp/1l5jA00.pdb
 127 120 0 0 0
SMALL
GASTEIGER

@<TRIPOS>ATOM
      1  N         49.0300  -37.2760   36.7520 N.3   191  ARG191     -0.1245
      2  CA        50.2570  -37.0000   35.9990 C.3   191  ARG191      0.1563
      3  C         51.2130  -35.9510   36.5850 C.2   191  ARG191      0.2260
      4  O         52.4180  -36.1610   36.5870 O.2   191  ARG191     -0.2867
      5  CB        49.9330  -36.6320   34.5460 C.3   191  ARG191      0.0307
      6  CG        49.3750  -37.7760   33.7160 C.3   191  ARG191      0.0489
      7  CD        48.9100  -37.3370   32.3460 C.3   191  ARG191      0.2205
      8  NE        48.3450  -38.4290   31.5750 N.pl3 191  ARG191     -0.0865
      9  CZ        47.9560  -38.3070   30.3160 C.cat 191  ARG191      0.5346
     10  NH1       48.0710  -37.1460   29.6920 N.pl3 191  ARG191      0.1354
     11  NH2       47.4530  -39.3430   29.6750 N.pl3 191  ARG191      0.1354
     12  N         50.1730  -42.1250   22.1260 N.3   244  SER244     -0.1202
     13  CA        50.0280  -40.8200   22.7790 C.3   244  SER244      0.2020
     14  C         51.3440  -40.1320   23.1230 C.2   244  SER244      0.2619
     15  O         52.3450  -40.7860   23.4150 O.2   244  SER244     -0.2717
     16  CB        49.1670  -40.9700   24.0450 C.3   244  SER244      0.2103
     17  OG        49.1570  -39.7780   24.8040 O.3   244  SER244     -0.2182
     18  N         51.3210  -38.8020   23.1080 N.am  245  SER245     -0.1937
     19  CA        52.5100  -37.9960   23.3720 C.3   245  SER245      0.2055
     20  C         52.7710  -37.7600   24.8670 C.2   245  SER245      0.2642
     21  O         53.8170  -37.2320   25.2350 O.2   245  SER245     -0.2714
     22  CB        52.3670  -36.6400   22.6850 C.3   245  SER245      0.2130
     23  OG        51.4160  -35.8220   23.3620 O.3   245  SER245     -0.2179
     24  N         51.8280  -38.1500   25.7180 N.am  246  ARG246     -0.1977
     25  CA        51.9160  -37.8730   27.1570 C.3   246  ARG246      0.1597
     26  C         53.3110  -38.0510   27.7300 C.2   246  ARG246      0.2287
     27  O         53.8500  -39.1570   27.7570 O.2   246  ARG246     -0.2864
     28  CB        50.8910  -38.6960   27.9570 C.3   246  ARG246      0.0334
     29  CG        51.0030  -40.2140   27.7930 C.3   246  ARG246      0.0492
     30  CD        49.8360  -40.9990   28.3840 C.3   246  ARG246      0.2205
     31  NE        48.7630  -41.1050   27.4090 N.pl3 246  ARG246     -0.0865
     32  CZ        47.8380  -42.0520   27.3860 C.cat 246  ARG246      0.5346
     33  NH1       47.8240  -43.0120   28.3010 N.pl3 246  ARG246      0.1354
     34  NH2       46.9150  -42.0350   26.4350 N.pl3 246  ARG246      0.1354
     35  N         45.8350  -29.3470   25.1530 N.3   414  GLN414     -0.1245
     36  CA        44.5670  -29.8790   25.6510 C.3   414  GLN414      0.1566
     37  C         44.6570  -30.1230   27.1510 C.2   414  GLN414      0.2260
     38  O         45.6820  -29.8400   27.7590 O.2   414  GLN414     -0.2867
     39  CB        44.1200  -31.1230   24.8740 C.3   414  GLN414      0.0367
     40  CG        45.2410  -32.0400   24.4590 C.3   414  GLN414      0.0905
     41  CD        45.5160  -33.1390   25.4690 C.2   414  GLN414      0.2608
     42  OE1       45.4870  -32.9110   26.6810 O.2   414  GLN414     -0.2717
     43  NE2       45.7970  -34.3340   24.9680 N.am  414  GLN414     -0.0878
     44  N         44.6420  -32.9110   29.2420 N.3   416  THR416     -0.1203
     45  CA        45.3440  -33.9960   29.9300 C.3   416  THR416      0.1994
     46  C         46.8710  -33.8520   29.8290 C.2   416  THR416      0.2618
     47  O         47.5890  -34.4190   30.6420 O.2   416  THR416     -0.2717
     48  CB        44.8460  -35.4220   29.5430 C.3   416  THR416      0.1784
     49  OG1       44.5340  -35.4800   28.1510 O.3   416  THR416     -0.2211
     50  CG2       43.5140  -35.7110   30.2140 C.3   416  THR416      0.0376
     51  N         47.3680  -33.1060   28.8390 N.am  417  THR417     -0.1952
     52  CA        48.7860  -32.7340   28.8610 C.3   417  THR417      0.1897
     53  C         48.9660  -31.3250   29.4290 C.2   417  THR417      0.2313
     54  O         50.0740  -30.9450   29.8120 O.2   417  THR417     -0.2863
     55  CB        49.4380  -32.8020   27.4750 C.3   417  THR417      0.1794
     56  OG1       48.7340  -31.9390   26.5710 O.3   417  THR417     -0.2208
     57  CG2       49.3030  -34.2080   26.8820 C.3   417  THR417      0.0378
     58  N         39.2110  -33.4310   27.0880 N.3   444  HIS444     -0.1241
     59  CA        39.4250  -34.7660   27.6450 C.3   444  HIS444      0.1621
     60  C         38.8400  -35.0120   29.0420 C.2   444  HIS444      0.2264
     61  O         38.6610  -36.1640   29.4300 O.2   444  HIS444     -0.2867
     62  CB        40.9180  -35.1440   27.6390 C.3   444  HIS444      0.0745
     63  CG        41.5310  -35.2160   26.2730 C.ar  444  HIS444      0.0817
     64  ND1       41.6790  -34.1100   25.4630 N.ar  444  HIS444     -0.2268
     65  CD2       42.0580  -36.2570   25.5860 C.ar  444  HIS444      0.1154
     66  CE1       42.2630  -34.4670   24.3330 C.ar  444  HIS444      0.1986
     67  NE2       42.5060  -35.7650   24.3830 N.ar  444  HIS444     -0.2212
     68  N         49.6740  -32.7880   21.8700 N.3   497  ASP497     -0.1225
     69  CA        48.7730  -33.8980   21.5610 C.3   497  ASP497      0.1805
     70  C         49.2320  -34.5800   20.2690 C.2   497  ASP497      0.2598
     71  O         49.4690  -33.9280   19.2560 O.2   497  ASP497     -0.2718
     72  CB        47.3310  -33.3920   21.4330 C.3   497  ASP497      0.1424
     73  CG        46.3540  -34.5070   21.2120 C.2   497  ASP497      0.3668
     74  OD1       45.7150  -34.9470   22.1920 O.co2 497  ASP497     -0.2456
     75  OD2       46.1690  -35.0130   20.0890 O.co2 497  ASP497     -0.2456
     76  N         49.3450  -35.8970   20.2960 N.am  498  SER498     -0.1938
     77  CA        49.9110  -36.6050   19.1550 C.3   498  SER498      0.2055
     78  C         49.0990  -36.4200   17.8870 C.2   498  SER498      0.2643
     79  O         49.6240  -36.5850   16.7870 O.2   498  SER498     -0.2714
     80  CB        50.0690  -38.0960   19.4620 C.3   498  SER498      0.2130
     81  OG        48.8080  -38.7120   19.5770 O.3   498  SER498     -0.2179
     82  N         47.8220  -36.0850   18.0440 N.am  499  HIS499     -0.1973
     83  CA        46.9380  -35.8880   16.8950 C.3   499  HIS499      0.1656
     84  C         46.9040  -34.4350   16.3930 C.2   499  HIS499      0.2291
     85  O         46.0040  -34.0270   15.6560 O.2   499  HIS499     -0.2864
     86  CB        45.5340  -36.4570   17.1790 C.3   499  HIS499      0.0771
     87  CG        45.5130  -37.9510   17.2450 C.ar  499  HIS499      0.0820
     88  ND1       45.4880  -38.6410   18.4370 N.ar  499  HIS499     -0.2267
     89  CD2       45.5840  -38.8890   16.2670 C.ar  499  HIS499      0.1154
     90  CE1       45.5110  -39.9400   18.1890 C.ar  499  HIS499      0.1986
     91  NE2       45.5670  -40.1170   16.8810 N.ar  499  HIS499     -0.2212
     92  N         37.1140  -42.0730   23.1660 N.3   772  CYS772     -0.1221
     93  CA        38.3410  -42.1110   22.3850 C.3   772  CYS772      0.1808
     94  C         39.5980  -42.2550   23.2300 C.2   772  CYS772      0.2601
     95  O         40.5370  -42.9440   22.8350 O.2   772  CYS772     -0.2717
     96  CB        38.4590  -40.8720   21.5060 C.3   772  CYS772      0.0970
     97  SG        39.9060  -40.9260   20.4360 S.3   772  CYS772     -0.0800
     98  N         39.6200  -41.5950   24.3840 N.am  773  MET773     -0.1979
     99  CA        40.7870  -41.6420   25.2570 C.3   773  MET773      0.1605
    100  C         40.6900  -42.7000   26.3400 C.2   773  MET773      0.2287
    101  O         41.7050  -43.2480   26.7520 O.2   773  MET773     -0.2864
    102  CB        41.0770  -40.2800   25.8900 C.3   773  MET773      0.0413
    103  CG        41.7440  -40.3960   27.2420 C.3   773  MET773      0.0598
    104  SD        43.0410  -39.2150   27.5530 S.3   773  MET773     -0.1393
    105  CE        44.0660  -39.5950   26.2570 C.3   773  MET773      0.0692
    106  N         42.3240  -44.9910   18.0750 N.3   791  ARG791     -0.1245
    107  CA        43.2280  -45.9880   18.6220 C.3   791  ARG791      0.1563
    108  C         42.5330  -47.1650   19.2620 C.2   791  ARG791      0.2260
    109  O         41.6540  -46.9990   20.0950 O.2   791  ARG791     -0.2867
    110  CB        44.1490  -45.3390   19.6560 C.3   791  ARG791      0.0307
    111  CG        45.0840  -44.2930   19.0910 C.3   791  ARG791      0.0489
    112  CD        46.0050  -43.6550   20.1260 C.3   791  ARG791      0.2205
    113  NE        47.1190  -42.9780   19.4810 N.pl3 791  ARG791     -0.0865
    114  CZ        47.5880  -41.7960   19.8430 C.cat 791  ARG791      0.5346
    115  NH1       48.5980  -41.2670   19.1710 N.pl3 791  ARG791      0.1354
    116  NH2       47.0470  -41.1420   20.8650 N.pl3 791  ARG791      0.1354
    117  N         42.3860  -49.5960   26.1830 N.3   796  ARG796     -0.1245
    118  CA        42.1350  -48.1750   26.0220 C.3   796  ARG796      0.1563
    119  C         40.6600  -47.7850   26.1850 C.2   796  ARG796      0.2260
    120  O         40.3410  -47.0050   27.0720 O.2   796  ARG796     -0.2867
    121  CB        42.7170  -47.6680   24.6970 C.3   796  ARG796      0.0307
    122  CG        42.5960  -46.1840   24.5380 C.3   796  ARG796      0.0489
    123  CD        43.7380  -45.5370   23.8060 C.3   796  ARG796      0.2205
    124  NE        43.3030  -44.2510   23.3010 N.pl3 796  ARG796     -0.0865
    125  CZ        44.0370  -43.1650   23.2810 C.cat 796  ARG796      0.5346
    126  NH1       43.5210  -42.0390   22.7940 N.pl3 796  ARG796      0.1354
    127  NH2       45.2770  -43.1990   23.7460 N.pl3 796  ARG796      0.1354
@<TRIPOS>BOND
     1    85    84    2
     2    89    91   ar
     3    89    87   ar
     4    84    83    1
     5    79    78    2
     6    91    90   ar
     7    83    86    1
     8    83    82    1
     9    86    87    1
    10    87    88   ar
    11    78    82   am
    12    78    77    1
    13   106   107    1
    14    90    88   ar
    15   107   108    1
    16   107   110    1
    17   111   110    1
    18   111   112    1
    19    77    80    1
    20    77    76    1
    21   115   114    1
    22    71    70    2
    23   108   109    2
    24    80    81    1
    25   113   114    2
    26   113   112    1
    27   114   116    1
    28    75    73   ar
    29    70    76   am
    30    70    69    1
    31    97    96    1
    32    73    72    1
    33    73    74   ar
    34    72    69    1
    35    96    93    1
    36    69    68    1
    37    12    13    1
    38    93    92    1
    39    93    94    1
    40    22    23    1
    41    22    19    1
    42    13    14    1
    43    13    16    1
    44   126   125    1
    45    95    94    2
    46    18    14   am
    47    18    19    1
    48    14    15    2
    49    94    98   am
    50   125   124    2
    51   125   127    1
    52   124   123    1
    53    19    20    1
    54   123   122    1
    55    16    17    1
    56    66    67   ar
    57    66    64   ar
    58    67    65   ar
    59    98    99    1
    60    40    39    1
    61    40    41    1
    62   122   121    1
    63   121   118    1
    64    20    21    2
    65    20    24   am
    66    39    36    1
    67    43    41   am
    68    35    36    1
    69    99   102    1
    70    99   100    1
    71    64    63   ar
    72    41    42    2
    73    65    63   ar
    74    36    37    1
    75    24    25    1
    76   102   103    1
    77   118   117    1
    78   118   119    1
    79   119   120    2
    80   105   104    1
    81    63    62    1
    82   100   101    2
    83    34    32    1
    84    56    55    1
    85    57    55    1
    86    58    59    1
    87    37    38    2
    88    25    26    1
    89    25    28    1
    90   103   104    1
    91    32    31    2
    92    32    33    1
    93    31    30    1
    94    55    52    1
    95    62    59    1
    96    59    60    1
    97    26    27    2
    98    29    28    1
    99    29    30    1
   100    49    48    1
   101    51    52    1
   102    51    46   am
   103    52    53    1
   104    60    61    2
   105    44    45    1
   106    53    54    2
   107    48    45    1
   108    48    50    1
   109    11     9    1
   110    10     9    1
   111    46    45    1
   112    46    47    2
   113     9     8    2
   114     8     7    1
   115     7     6    1
   116     6     5    1
   117     5     2    1
   118     2     3    1
   119     2     1    1
   120     3     4    2
