@<TRIPOS>MOLECULE
tmp/1l5oA01.pdb
 211 203 0 0 0
SMALL
GASTEIGER

@<TRIPOS>ATOM
      1  N         65.8930   38.0080    1.0470 N.3    74  VAL74      -0.1231
      2  CA        64.4580   38.2290    0.8500 C.3    74  VAL74       0.1692
      3  C         63.7560   39.0460    1.9390 C.2    74  VAL74       0.2592
      4  O         62.5490   39.2780    1.8490 O.2    74  VAL74      -0.2718
      5  CB        63.7070   36.8770    0.7470 C.3    74  VAL74       0.0266
      6  CG1       64.1410   36.1200   -0.5130 C.3    74  VAL74       0.0020
      7  CG2       63.9890   36.0420    1.9860 C.3    74  VAL74       0.0020
      8  N         64.4990   39.4670    2.9540 N.am   75  ALA75      -0.1966
      9  CA        63.9370   40.2470    4.0710 C.3    75  ALA75       0.1728
     10  C         64.9160   41.3300    4.4980 C.2    75  ALA75       0.2616
     11  O         66.1160   41.0820    4.5420 O.2    75  ALA75      -0.2715
     12  CB        63.6610   39.3310    5.2670 C.3    75  ALA75       0.0334
     13  N         64.4040   42.5060    4.8510 N.am   76  VAL76      -0.1963
     14  CA        65.2670   43.5990    5.2790 C.3    76  VAL76       0.1727
     15  C         65.4350   43.6780    6.7920 C.2    76  VAL76       0.2616
     16  O         66.3170   44.3910    7.2900 O.2    76  VAL76      -0.2715
     17  CB        64.7690   44.9870    4.7580 C.3    76  VAL76       0.0290
     18  CG1       64.7710   45.0030    3.2440 C.3    76  VAL76       0.0023
     19  CG2       63.3800   45.2920    5.2930 C.3    76  VAL76       0.0023
     20  N         64.6080   42.9590    7.5410 N.am   77  SER77      -0.1950
     21  CA        64.7480   42.9860    9.0050 C.3    77  SER77       0.1924
     22  C         65.9250   42.1200    9.4420 C.2    77  SER77       0.2314
     23  O         66.1340   41.0310    8.9070 O.2    77  SER77      -0.2863
     24  CB        63.4940   42.4370    9.7020 C.3    77  SER77       0.2116
     25  OG        62.3060   43.1050    9.3180 O.3    77  SER77      -0.2180
     26  N         52.1560   34.3220   14.3430 N.3   171  GLU171     -0.1231
     27  CA        53.5390   33.9130   14.1320 C.3   171  GLU171      0.1699
     28  C         54.4820   35.1020   14.2370 C.2   171  GLU171      0.2592
     29  O         54.0590   36.2570   14.3160 O.2   171  GLU171     -0.2718
     30  CB        53.7130   33.2540   12.7550 C.3   171  GLU171      0.0402
     31  CG        53.0240   33.9820   11.5840 C.3   171  GLU171      0.1161
     32  CD        53.3740   35.4540   11.4830 C.2   171  GLU171      0.3649
     33  OE1       54.5540   35.7570   11.2440 O.co2 171  GLU171     -0.2457
     34  OE2       52.4540   36.2970   11.6490 O.co2 171  GLU171     -0.2457
     35  N         55.7680   34.7860   14.2510 N.am  172  LEU172     -0.1966
     36  CA        56.8290   35.7720   14.3150 C.3   172  LEU172      0.1728
     37  C         58.0380   35.0660   13.7160 C.2   172  LEU172      0.2617
     38  O         58.4350   34.0010   14.1870 O.2   172  LEU172     -0.2715
     39  CB        57.1080   36.1600   15.7760 C.3   172  LEU172      0.0311
     40  CG        58.3340   37.0340   16.0220 C.3   172  LEU172      0.0022
     41  CD1       58.0820   38.4370   15.4150 C.3   172  LEU172      0.0001
     42  CD2       58.6120   37.1530   17.5220 C.3   172  LEU172      0.0001
     43  N         58.6110   35.6420   12.6600 N.am  173  GLY173     -0.1940
     44  CA        59.7620   35.0230   12.0300 C.3   173  GLY173      0.2014
     45  C         60.2120   35.7880   10.8010 C.2   173  GLY173      0.2639
     46  O         59.4900   35.8570    9.7970 O.2   173  GLY173     -0.2714
     47  N         61.4190   36.3360   10.8650 N.am  174  MET174     -0.1963
     48  CA        61.9200   37.1150    9.7430 C.3   174  MET174      0.1736
     49  C         62.0500   36.2160    8.5170 C.2   174  MET174      0.2616
     50  O         62.4690   35.0560    8.6170 O.2   174  MET174     -0.2715
     51  CB        63.2540   37.7610   10.1150 C.3   174  MET174      0.0427
     52  CG        63.1980   38.5820   11.4150 C.3   174  MET174      0.0599
     53  SD        61.9270   39.8920   11.4580 S.3   174  MET174     -0.1393
     54  CE        60.6720   39.1550   12.5440 C.3   174  MET174      0.0692
     55  N         61.6600   36.7740    7.3780 N.am  175  ALA175     -0.1963
     56  CA        61.6740   36.1080    6.0770 C.3   175  ALA175      0.1728
     57  C         60.5070   35.1420    5.8850 C.2   175  ALA175      0.2616
     58  O         60.4180   34.4910    4.8280 O.2   175  ALA175     -0.2715
     59  CB        63.0090   35.3460    5.8560 C.3   175  ALA175      0.0334
     60  N         59.5930   35.0290    6.8500 N.am  176  ASN176     -0.1958
     61  CA        58.5400   34.0250    6.6430 C.3   176  ASN176      0.1819
     62  C         57.4650   34.2750    5.5540 C.2   176  ASN176      0.2622
     63  O         56.7070   33.3640    5.2400 O.2   176  ASN176     -0.2715
     64  CB        57.9280   33.5510    8.0030 C.3   176  ASN176      0.1195
     65  CG        56.9910   34.5650    8.6740 C.2   176  ASN176      0.2630
     66  OD1       56.6760   35.6230    8.1310 O.2   176  ASN176     -0.2716
     67  ND2       56.5260   34.2120    9.8860 N.am  176  ASN176     -0.0877
     68  N         57.4060   35.4640    4.9410 N.am  177  THR177     -0.1937
     69  CA        56.4200   35.6390    3.8650 C.3   177  THR177      0.2028
     70  C         56.9350   34.9710    2.5810 C.2   177  THR177      0.2642
     71  O         56.1900   34.8510    1.6150 O.2   177  THR177     -0.2714
     72  CB        56.0620   37.1340    3.5680 C.3   177  THR177      0.1808
     73  OG1       57.2280   37.8570    3.1710 O.3   177  THR177     -0.2208
     74  CG2       55.4600   37.7950    4.8060 C.3   177  THR177      0.0379
     75  N         58.2050   34.5420    2.5720 N.am  178  THR178     -0.1950
     76  CA        58.7410   33.8340    1.4050 C.3   178  THR178      0.1897
     77  C         58.1830   32.3920    1.3800 C.2   178  THR178      0.2313
     78  O         57.5920   31.9910    0.3790 O.2   178  THR178     -0.2863
     79  CB        60.2890   33.8770    1.3850 C.3   178  THR178      0.1794
     80  OG1       60.7020   35.2160    1.1030 O.3   178  THR178     -0.2208
     81  CG2       60.8580   32.9510    0.3050 C.3   178  THR178      0.0378
     82  N         55.5290   42.4580   -0.4330 N.3   198  ILE198     -0.1231
     83  CA        56.6680   43.1520    0.1550 C.3   198  ILE198      0.1692
     84  C         56.9800   42.7600    1.6050 C.2   198  ILE198      0.2593
     85  O         57.9090   43.3050    2.2050 O.2   198  ILE198     -0.2718
     86  CB        56.4810   44.6840    0.0990 C.3   198  ILE198      0.0266
     87  CG1       55.3330   45.0970    1.0220 C.3   198  ILE198      0.0019
     88  CG2       56.2200   45.1190   -1.3450 C.3   198  ILE198      0.0020
     89  CD1       55.2560   46.5880    1.2830 C.3   198  ILE198      0.0001
     90  N         56.2150   41.8300    2.1680 N.am  199  GLY199     -0.1942
     91  CA        56.4700   41.4100    3.5430 C.3   199  GLY199      0.2014
     92  C         56.6360   42.5940    4.4830 C.2   199  GLY199      0.2638
     93  O         55.8150   43.5100    4.4800 O.2   199  GLY199     -0.2714
     94  N         57.7000   42.5940    5.2860 N.am  200  ALA200     -0.1977
     95  CA        57.9260   43.6950    6.2120 C.3   200  ALA200      0.1597
     96  C         58.7780   44.7710    5.5320 C.2   200  ALA200      0.2287
     97  O         59.9750   44.8870    5.7710 O.2   200  ALA200     -0.2864
     98  CB        58.6040   43.1940    7.4930 C.3   200  ALA200      0.0319
     99  N         59.9000   45.2300    2.2830 N.3   202  LEU202     -0.1245
    100  CA        60.9700   44.9100    1.3580 C.3   202  LEU202      0.1561
    101  C         60.8900   45.9830    0.2570 C.2   202  LEU202      0.2260
    102  O         59.8070   46.3030   -0.2220 O.2   202  LEU202     -0.2867
    103  CB        60.7490   43.5250    0.7340 C.3   202  LEU202      0.0270
    104  CG        61.8570   43.0350   -0.2060 C.3   202  LEU202      0.0019
    105  CD1       63.1120   42.7010    0.5820 C.3   202  LEU202      0.0001
    106  CD2       61.3660   41.8050   -0.9760 C.3   202  LEU202      0.0001
    107  N         63.0590   38.0590   -4.6690 N.3   210  LYS210     -0.1245
    108  CA        62.1650   37.2570   -3.8280 C.3   210  LYS210      0.1561
    109  C         61.3270   36.3120   -4.6960 C.2   210  LYS210      0.2260
    110  O         61.1290   35.1460   -4.3380 O.2   210  LYS210     -0.2867
    111  CB        61.2760   38.1870   -2.9730 C.3   210  LYS210      0.0271
    112  CG        60.4050   37.4950   -1.9250 C.3   210  LYS210      0.0035
    113  CD        59.7290   38.5320   -1.0220 C.3   210  LYS210      0.0206
    114  CE        58.8050   37.8860    0.0140 C.3   210  LYS210      0.1093
    115  NZ        58.0930   38.9390    0.8310 N.3   210  LYS210     -0.1314
    116  N         44.6990   35.0270   11.1970 N.3   260  ASP260     -0.1225
    117  CA        45.2960   36.3610   11.2740 C.3   260  ASP260      0.1805
    118  C         45.5020   36.8720    9.8500 C.2   260  ASP260      0.2598
    119  O         44.5310   37.1200    9.1390 O.2   260  ASP260     -0.2718
    120  CB        46.6380   36.3050   12.0370 C.3   260  ASP260      0.1424
    121  CG        47.2200   37.6970   12.3150 C.2   260  ASP260      0.3668
    122  OD1       46.4300   38.6530   12.4830 O.co2 260  ASP260     -0.2456
    123  OD2       48.4520   37.8400   12.3690 O.co2 260  ASP260     -0.2456
    124  N         46.7620   37.0360    9.4470 N.am  261  GLY261     -0.1942
    125  CA        47.0510   37.5340    8.1090 C.3   261  GLY261      0.2014
    126  C         47.5390   36.5010    7.1010 C.2   261  GLY261      0.2639
    127  O         47.2180   35.3090    7.1920 O.2   261  GLY261     -0.2714
    128  N         48.3680   36.9660    6.1660 N.am  262  PHE262     -0.1959
    129  CA        48.8860   36.1430    5.0740 C.3   262  PHE262      0.1771
    130  C         49.5410   34.8320    5.4780 C.2   262  PHE262      0.2619
    131  O         49.2570   33.7830    4.8770 O.2   262  PHE262     -0.2715
    132  CB        49.8550   36.9810    4.2200 C.3   262  PHE262      0.0574
    133  CG        50.3130   36.2870    2.9700 C.ar  262  PHE262     -0.0200
    134  CD1       51.6440   35.9390    2.8070 C.ar  262  PHE262     -0.0042
    135  CD2       49.4100   36.0030    1.9450 C.ar  262  PHE262     -0.0042
    136  CE1       52.0810   35.3220    1.6340 C.ar  262  PHE262     -0.0003
    137  CE2       49.8350   35.3830    0.7630 C.ar  262  PHE262     -0.0003
    138  CZ        51.1720   35.0430    0.6120 C.ar  262  PHE262     -0.0000
    139  N         50.3910   34.8830    6.5030 N.am  263  LEU263     -0.1977
    140  CA        51.0650   33.6760    6.9740 C.3   263  LEU263      0.1596
    141  C         50.0350   32.6660    7.4410 C.2   263  LEU263      0.2287
    142  O         50.1400   31.4790    7.1310 O.2   263  LEU263     -0.2864
    143  CB        52.0430   33.9870    8.1260 C.3   263  LEU263      0.0297
    144  CG        53.3120   34.8400    7.8750 C.3   263  LEU263      0.0022
    145  CD1       53.9620   34.4430    6.5550 C.3   263  LEU263      0.0001
    146  CD2       52.9470   36.3230    7.8450 C.3   263  LEU263      0.0001
    147  N         40.9930   39.5940    9.5660 N.3   286  HIS286     -0.1241
    148  CA        41.1900   40.7220    8.6690 C.3   286  HIS286      0.1621
    149  C         41.7150   40.3320    7.2970 C.2   286  HIS286      0.2264
    150  O         42.0760   39.1870    7.0620 O.2   286  HIS286     -0.2867
    151  CB        42.1230   41.7570    9.3290 C.3   286  HIS286      0.0745
    152  CG        43.5840   41.4160    9.2770 C.ar  286  HIS286      0.0817
    153  ND1       44.1420   40.3780   10.0010 N.ar  286  HIS286     -0.2268
    154  CD2       44.6140   42.0160    8.6340 C.ar  286  HIS286      0.1154
    155  CE1       45.4480   40.3610    9.8060 C.ar  286  HIS286      0.1986
    156  NE2       45.7610   41.3420    8.9760 N.ar  286  HIS286     -0.2212
    157  N         44.6380   40.8850    5.0470 N.3   288  SER288     -0.1217
    158  CA        46.0390   41.3220    5.0050 C.3   288  SER288      0.1889
    159  C         46.3900   42.1610    3.7650 C.2   288  SER288      0.2288
    160  O         45.8930   41.9020    2.6720 O.2   288  SER288     -0.2866
    161  CB        46.9610   40.0950    5.0500 C.3   288  SER288      0.2089
    162  OG        48.3170   40.4710    4.8590 O.3   288  SER288     -0.2183
    163  N         49.1140   42.1190    2.2950 N.3   290  GLU290     -0.1245
    164  CA        50.0750   41.3940    1.4910 C.3   290  GLU290      0.1567
    165  C         49.4720   41.1150    0.1070 C.2   290  GLU290      0.2260
    166  O         48.2900   40.7700   -0.0130 O.2   290  GLU290     -0.2867
    167  CB        50.4530   40.1030    2.2320 C.3   290  GLU290      0.0388
    168  CG        51.5260   39.2770    1.6020 C.3   290  GLU290      0.1160
    169  CD        52.9480   39.7990    1.7830 C.2   290  GLU290      0.3649
    170  OE1       53.8450   39.1430    1.2310 O.co2 290  GLU290     -0.2457
    171  OE2       53.2070   40.8250    2.4530 O.co2 290  GLU290     -0.2457
    172  N         46.2190   45.9180    7.4290 N.3   310  MET310     -0.1230
    173  CA        47.2280   45.4630    8.3710 C.3   310  MET310      0.1702
    174  C         48.1450   44.3950    7.7710 C.2   310  MET310      0.2592
    175  O         47.7260   43.5730    6.9390 O.2   310  MET310     -0.2718
    176  CB        46.5600   44.9500    9.6490 C.3   310  MET310      0.0401
    177  CG        46.2570   46.0540   10.6620 C.3   310  MET310      0.0596
    178  SD        45.0120   45.5560   11.8620 S.3   310  MET310     -0.1393
    179  CE        45.8950   44.2640   12.8280 C.3   310  MET310      0.0692
    180  N         49.4080   44.4610    8.1770 N.am  311  ARG311     -0.1966
    181  CA        50.4490   43.5380    7.7210 C.3   311  ARG311      0.1729
    182  C         51.5390   43.3370    8.7790 C.2   311  ARG311      0.2616
    183  O         52.7100   43.1510    8.4470 O.2   311  ARG311     -0.2715
    184  CB        51.0660   44.0610    6.4140 C.3   311  ARG311      0.0348
    185  CG        51.4880   45.5300    6.4500 C.3   311  ARG311      0.0492
    186  CD        52.0080   45.9720    5.0720 C.3   311  ARG311      0.2205
    187  NE        52.3140   47.3960    5.0190 N.pl3 311  ARG311     -0.0865
    188  CZ        53.4400   47.9550    5.4580 C.cat 311  ARG311      0.5346
    189  NH1       54.3930   47.2100    6.0000 N.pl3 311  ARG311      0.1354
    190  NH2       53.6130   49.2740    5.3450 N.pl3 311  ARG311      0.1354
    191  N         51.1570   43.3590   10.0540 N.am  312  LEU312     -0.1963
    192  CA        52.1240   43.1670   11.1340 C.3   312  LEU312      0.1728
    193  C         52.4240   41.6950   11.4440 C.2   312  LEU312      0.2617
    194  O         53.5860   41.3000   11.6590 O.2   312  LEU312     -0.2715
    195  CB        51.6340   43.8440   12.4310 C.3   312  LEU312      0.0311
    196  CG        52.4820   43.5410   13.6940 C.3   312  LEU312      0.0022
    197  CD1       53.9210   43.9970   13.4880 C.3   312  LEU312      0.0001
    198  CD2       51.9030   44.2440   14.9040 C.3   312  LEU312      0.0001
    199  N         51.3720   40.8860   11.4700 N.am  313  GLY313     -0.1940
    200  CA        51.5280   39.4900   11.8380 C.3   313  GLY313      0.2014
    201  C         51.3590   39.4300   13.3560 C.2   313  GLY313      0.2638
    202  O         50.6350   40.2540   13.9210 O.2   313  GLY313     -0.2714
    203  N         52.0220   38.4680   14.0030 N.am  314  GLU314     -0.1977
    204  CA        51.9840   38.2530   15.4660 C.3   314  GLU314      0.1602
    205  C         50.6530   37.7560   16.0310 C.2   314  GLU314      0.2287
    206  O         50.5740   37.4520   17.2260 O.2   314  GLU314     -0.2864
    207  CB        52.3160   39.5500   16.2280 C.3   314  GLU314      0.0415
    208  CG        53.6540   40.1840   15.8910 C.3   314  GLU314      0.1163
    209  CD        53.9650   41.3720   16.8020 C.2   314  GLU314      0.3649
    210  OE1       53.1970   41.6080   17.7580 O.co2 314  GLU314     -0.2457
    211  OE2       54.9720   42.0500   16.5580 O.co2 314  GLU314     -0.2457
@<TRIPOS>BOND
     1   109   110    2
     2   109   108    1
     3   107   108    1
     4   108   111    1
     5   111   112    1
     6   112   113    1
     7    88    86    1
     8   113   114    1
     9   106   104    1
    10     6     5    1
    11    82    83    1
    12   102   101    2
    13   104   105    1
    14   104   103    1
    15   166   165    2
    16   114   115    1
    17    86    83    1
    18    86    87    1
    19   165   164    1
    20    83    84    1
    21   101   100    1
    22    81    79    1
    23    78    77    2
    24   138   137   ar
    25   138   136   ar
    26   103   100    1
    27     5     2    1
    28     5     7    1
    29   137   135   ar
    30     2     1    1
    31     2     3    1
    32    87    89    1
    33    80    79    1
    34   170   169   ar
    35   100    99    1
    36    77    76    1
    37    79    76    1
    38    76    75    1
    39   164   167    1
    40   164   163    1
    41   168   169    1
    42   168   167    1
    43    84    90   am
    44    84    85    2
    45    71    70    2
    46   136   134   ar
    47   169   171   ar
    48     4     3    2
    49     3     8   am
    50   135   133   ar
    51    90    91    1
    52    75    70   am
    53    70    69    1
    54   160   159    2
    55   134   133   ar
    56     8     9    1
    57   133   132    1
    58    73    72    1
    59    18    17    1
    60    91    92    1
    61    72    69    1
    62    72    74    1
    63   159   158    1
    64    69    68    1
    65     9    10    1
    66     9    12    1
    67   132   129    1
    68    93    92    2
    69    92    94   am
    70    10    11    2
    71    10    13   am
    72    17    14    1
    73    17    19    1
    74    58    57    2
    75    13    14    1
    76   162   161    1
    77   131   130    2
    78    68    62   am
    79   158   157    1
    80   158   161    1
    81   187   186    1
    82   187   188    2
    83   186   185    1
    84   129   130    1
    85   129   128    1
    86    63    62    2
    87    14    15    1
    88    94    95    1
    89   190   188    1
    90   188   189    1
    91   130   139   am
    92    96    97    2
    93    96    95    1
    94    62    61    1
    95    59    56    1
    96    57    56    1
    97    57    60   am
    98    56    55    1
    99   128   126   am
   100    95    98    1
   101   184   185    1
   102   184   181    1
   103   139   140    1
   104   145   144    1
   105    61    60    1
   106    61    64    1
   107    15    16    2
   108    15    20   am
   109   175   174    2
   110   140   141    1
   111   140   143    1
   112   150   149    2
   113   126   127    2
   114   126   125    1
   115   142   141    2
   116   149   148    1
   117    55    49   am
   118   172   173    1
   119    20    21    1
   120   181   180    1
   121   181   182    1
   122   174   180   am
   123   174   173    1
   124   146   144    1
   125   144   143    1
   126    64    65    1
   127   125   124    1
   128    66    65    2
   129   173   176    1
   130   183   182    2
   131    49    50    2
   132    49    48    1
   133   154   156   ar
   134   154   152   ar
   135   148   151    1
   136   148   147    1
   137    65    67   am
   138   182   191   am
   139    23    22    2
   140   156   155   ar
   141    21    22    1
   142    21    24    1
   143   119   118    2
   144   152   151    1
   145   152   153   ar
   146    25    24    1
   147   124   118   am
   148   176   177    1
   149    48    51    1
   150    48    47    1
   151    46    45    2
   152   155   153   ar
   153   118   117    1
   154   191   192    1
   155    51    52    1
   156   177   178    1
   157    45    47   am
   158    45    44    1
   159   192   193    1
   160   192   195    1
   161   116   117    1
   162    33    32   ar
   163   117   120    1
   164    52    53    1
   165   193   199   am
   166   193   194    2
   167    53    54    1
   168   199   200    1
   169    32    31    1
   170    32    34   ar
   171    31    30    1
   172   200   201    1
   173   178   179    1
   174    44    43    1
   175   120   121    1
   176   121   123   ar
   177   121   122   ar
   178   195   196    1
   179    43    37   am
   180    30    27    1
   181   201   202    2
   182   201   203   am
   183   197   196    1
   184   196   198    1
   185    37    38    2
   186    37    36    1
   187   203   204    1
   188    27    28    1
   189    27    26    1
   190    28    35   am
   191    28    29    2
   192    35    36    1
   193    36    39    1
   194    41    40    1
   195   204   205    1
   196   204   207    1
   197    39    40    1
   198   208   207    1
   199   208   209    1
   200    40    42    1
   201   205   206    2
   202   211   209   ar
   203   209   210   ar
