@<TRIPOS>MOLECULE
tmp/1l5qA03.pdb
 115 115 0 0 0
SMALL
GASTEIGER

@<TRIPOS>ATOM
      1  N         72.5220  -65.3740   67.1410 N.3    16  PHE16      -0.1227
      2  CA        72.0580  -66.7590   67.1860 C.3    16  PHE16       0.1736
      3  C         70.8200  -67.0170   68.0280 C.2    16  PHE16       0.2596
      4  O         70.0360  -67.9070   67.6950 O.2    16  PHE16      -0.2718
      5  CB        73.1620  -67.6850   67.7110 C.3    16  PHE16       0.0547
      6  CG        74.3770  -67.7510   66.8260 C.ar   16  PHE16      -0.0202
      7  CD1       74.3310  -68.4240   65.6050 C.ar   16  PHE16      -0.0042
      8  CD2       75.5660  -67.1130   67.2040 C.ar   16  PHE16      -0.0042
      9  CE1       75.4460  -68.4650   64.7610 C.ar   16  PHE16      -0.0003
     10  CE2       76.7030  -67.1430   66.3700 C.ar   16  PHE16      -0.0003
     11  CZ        76.6400  -67.8250   65.1350 C.ar   16  PHE16      -0.0000
     12  N         70.6500  -66.2800   69.1270 N.am   17  THR17      -0.1939
     13  CA        69.5020  -66.5100   70.0100 C.3    17  THR17       0.2028
     14  C         68.2640  -65.6950   69.6000 C.2    17  THR17       0.2642
     15  O         67.1430  -66.2020   69.6620 O.2    17  THR17      -0.2714
     16  CB        69.8770  -66.1930   71.4760 C.3    17  THR17       0.1808
     17  OG1       71.0730  -66.9040   71.8260 O.3    17  THR17      -0.2208
     18  CG2       68.7480  -66.6140   72.4550 C.3    17  THR17       0.0379
     19  N         68.4530  -64.4430   69.1890 N.am   18  LEU18      -0.1963
     20  CA        67.3110  -63.6220   68.7730 C.3    18  LEU18       0.1728
     21  C         67.1650  -63.5190   67.2580 C.2    18  LEU18       0.2616
     22  O         66.1710  -62.9920   66.7690 O.2    18  LEU18      -0.2715
     23  CB        67.3770  -62.2090   69.3770 C.3    18  LEU18       0.0311
     24  CG        67.0010  -62.0830   70.8710 C.3    18  LEU18       0.0022
     25  CD1       65.6080  -62.7000   71.1080 C.3    18  LEU18       0.0001
     26  CD2       68.0410  -62.7980   71.7470 C.3    18  LEU18       0.0001
     27  N         68.1530  -64.0170   66.5200 N.am   19  VAL19      -0.1977
     28  CA        68.1170  -63.9800   65.0520 C.3    19  VAL19       0.1596
     29  C         67.9060  -62.5470   64.5640 C.2    19  VAL19       0.2287
     30  O         67.0060  -62.2860   63.7720 O.2    19  VAL19      -0.2864
     31  CB        66.9560  -64.8520   64.4930 C.3    19  VAL19       0.0276
     32  CG1       67.2020  -65.1920   63.0390 C.3    19  VAL19       0.0022
     33  CG2       66.7880  -66.1180   65.3200 C.3    19  VAL19       0.0022
     34  N         66.4660  -59.1850   75.8220 N.3    32  PHE32      -0.1241
     35  CA        66.6560  -60.6280   75.8460 C.3    32  PHE32       0.1605
     36  C         68.1220  -61.0000   75.5950 C.2    32  PHE32       0.2264
     37  O         68.6310  -61.9610   76.1970 O.2    32  PHE32      -0.2867
     38  CB        65.7600  -61.3210   74.8050 C.3    32  PHE32       0.0534
     39  CG        64.2970  -61.4580   75.2240 C.ar   32  PHE32      -0.0203
     40  CD1       63.9460  -61.6920   76.5620 C.ar   32  PHE32      -0.0042
     41  CD2       63.2770  -61.3910   74.2690 C.ar   32  PHE32      -0.0042
     42  CE1       62.6030  -61.8600   76.9420 C.ar   32  PHE32      -0.0003
     43  CE2       61.9290  -61.5590   74.6310 C.ar   32  PHE32      -0.0003
     44  CZ        61.5920  -61.7940   75.9650 C.ar   32  PHE32      -0.0000
     45  N         70.2630  -63.1310   78.4140 N.3    36  HIS36      -0.1241
     46  CA        70.9320  -64.3970   78.1500 C.3    36  HIS36       0.1621
     47  C         72.4320  -64.2620   78.4570 C.2    36  HIS36       0.2264
     48  O         73.0780  -65.2130   78.9290 O.2    36  HIS36      -0.2867
     49  CB        70.7440  -64.8130   76.6900 C.3    36  HIS36       0.0745
     50  CG        69.4680  -65.5430   76.4190 C.ar   36  HIS36       0.0817
     51  ND1       68.2610  -64.9010   76.2550 N.ar   36  HIS36      -0.2268
     52  CD2       69.2110  -66.8660   76.2780 C.ar   36  HIS36       0.1154
     53  CE1       67.3140  -65.7950   76.0280 C.ar   36  HIS36       0.1986
     54  NE2       67.8640  -66.9940   76.0370 N.ar   36  HIS36      -0.2212
     55  N         72.5140  -64.4790   82.1930 N.3    39  ARG39      -0.1245
     56  CA        72.1260  -65.8320   82.5680 C.3    39  ARG39       0.1563
     57  C         73.2780  -66.8450   82.3960 C.2    39  ARG39       0.2260
     58  O         73.4560  -67.7450   83.2120 O.2    39  ARG39      -0.2867
     59  CB        70.9260  -66.2680   81.7240 C.3    39  ARG39       0.0307
     60  CG        70.3360  -67.5740   82.1480 C.3    39  ARG39       0.0489
     61  CD        69.2210  -67.9990   81.2130 C.3    39  ARG39       0.2205
     62  NE        69.7130  -68.6510   79.9960 N.pl3  39  ARG39      -0.0865
     63  CZ        68.9140  -69.1020   79.0410 C.cat  39  ARG39       0.5346
     64  NH1       67.6070  -68.9620   79.1680 N.pl3  39  ARG39       0.1354
     65  NH2       69.4190  -69.7050   77.9760 N.pl3  39  ARG39       0.1354
     66  N         54.1740  -64.3140   80.7930 N.3   162  LEU162     -0.1231
     67  CA        54.9810  -65.2640   80.0160 C.3   162  LEU162      0.1693
     68  C         54.8020  -65.1630   78.5030 C.2   162  LEU162      0.2592
     69  O         55.4470  -65.8900   77.7460 O.2   162  LEU162     -0.2718
     70  CB        54.6580  -66.7050   80.4460 C.3   162  LEU162      0.0284
     71  CG        54.8610  -67.0980   81.9140 C.3   162  LEU162      0.0019
     72  CD1       54.3540  -68.5200   82.1130 C.3   162  LEU162      0.0001
     73  CD2       56.3490  -67.0000   82.2940 C.3   162  LEU162      0.0001
     74  N         53.9540  -64.2490   78.0560 N.am  163  ARG163     -0.1966
     75  CA        53.6830  -64.1020   76.6280 C.3   163  ARG163      0.1729
     76  C         54.9030  -64.0470   75.7250 C.2   163  ARG163      0.2616
     77  O         54.9240  -64.6810   74.6790 O.2   163  ARG163     -0.2715
     78  CB        52.8130  -62.8680   76.3910 C.3   163  ARG163      0.0348
     79  CG        52.5740  -62.5270   74.9260 C.3   163  ARG163      0.0492
     80  CD        51.2990  -61.6840   74.7600 C.3   163  ARG163      0.2205
     81  NE        50.1010  -62.4800   75.0330 N.pl3 163  ARG163     -0.0865
     82  CZ        48.8490  -62.0260   74.9700 C.cat 163  ARG163      0.5346
     83  NH1       48.6040  -60.7590   74.6390 N.pl3 163  ARG163      0.1354
     84  NH2       47.8380  -62.8490   75.2370 N.pl3 163  ARG163      0.1354
     85  N         55.9280  -63.3070   76.1230 N.am  164  TYR164     -0.1960
     86  CA        57.1050  -63.1710   75.2940 C.3   164  TYR164      0.1771
     87  C         58.2340  -64.1270   75.6890 C.2   164  TYR164      0.2620
     88  O         59.3050  -64.1220   75.0870 O.2   164  TYR164     -0.2715
     89  CB        57.5830  -61.7140   75.3440 C.3   164  TYR164      0.0574
     90  CG        56.4990  -60.7400   74.9360 C.ar  164  TYR164     -0.0198
     91  CD1       56.1050  -59.6940   75.7810 C.ar  164  TYR164     -0.0009
     92  CD2       55.8380  -60.8860   73.7190 C.ar  164  TYR164     -0.0009
     93  CE1       55.0730  -58.8180   75.4190 C.ar  164  TYR164      0.0417
     94  CE2       54.8090  -60.0210   73.3460 C.ar  164  TYR164      0.0417
     95  CZ        54.4290  -58.9890   74.1980 C.ar  164  TYR164      0.1957
     96  OH        53.4020  -58.1430   73.8180 O.3   164  TYR164     -0.2866
     97  N         57.9880  -64.9590   76.6930 N.am  165  GLY165     -0.1940
     98  CA        59.0190  -65.8850   77.1360 C.3   165  GLY165      0.2014
     99  C         59.7220  -65.4330   78.4050 C.2   165  GLY165      0.2639
    100  O         59.9240  -64.2370   78.6290 O.2   165  GLY165     -0.2714
    101  N         60.1040  -66.3900   79.2420 N.am  166  ASN166     -0.1958
    102  CA        60.7890  -66.0840   80.4970 C.3   166  ASN166      0.1804
    103  C         62.1620  -66.7360   80.4160 C.2   166  ASN166      0.2463
    104  O         62.2960  -67.9350   80.5920 O.2   166  ASN166     -0.2730
    105  CB        59.9830  -66.6450   81.6850 C.3   166  ASN166      0.1195
    106  CG        60.6980  -66.4800   83.0210 C.2   166  ASN166      0.2630
    107  OD1       61.6180  -65.6750   83.1480 O.2   166  ASN166     -0.2716
    108  ND2       60.2580  -67.2290   84.0300 N.am  166  ASN166     -0.0877
    109  N         63.2100  -65.9470   80.1610 N.am  167  PRO167     -0.2727
    110  CA        64.5440  -66.5510   80.0670 C.3   167  PRO167      0.1402
    111  C         65.0830  -67.0430   81.4030 C.2   167  PRO167      0.2269
    112  O         66.0660  -67.7800   81.4530 O.2   167  PRO167     -0.2865
    113  CB        65.3850  -65.4180   79.4970 C.3   167  PRO167      0.0296
    114  CG        64.7610  -64.1970   80.1480 C.3   167  PRO167      0.0237
    115  CD        63.2760  -64.4730   80.0510 C.3   167  PRO167      0.0939
@<TRIPOS>BOND
     1    32    31    1
     2    30    29    2
     3    31    28    1
     4    31    33    1
     5    29    28    1
     6     9    11   ar
     7     9     7   ar
     8    28    27    1
     9    11    10   ar
    10     7     6   ar
    11    10     8   ar
    12    27    21   am
    13    22    21    2
    14     6     8   ar
    15     6     5    1
    16     1     2    1
    17     2     5    1
    18     2     3    1
    19    21    20    1
    20     4     3    2
    21     3    12   am
    22    20    19    1
    23    20    23    1
    24    12    13    1
    25    19    14   am
    26    23    24    1
    27    14    15    2
    28    14    13    1
    29    13    16    1
    30    24    25    1
    31    24    26    1
    32    16    17    1
    33    16    18    1
    34    94    92   ar
    35    94    95   ar
    36    92    90   ar
    37    96    95    1
    38    95    93   ar
    39    41    43   ar
    40    41    39   ar
    41    43    44   ar
    42    83    82    1
    43    77    76    2
    44    80    79    1
    45    80    81    1
    46    38    39    1
    47    38    35    1
    48    79    78    1
    49    90    89    1
    50    90    91   ar
    51    82    81    2
    52    82    84    1
    53    88    87    2
    54    39    40   ar
    55    86    89    1
    56    86    87    1
    57    86    85    1
    58    93    91   ar
    59    36    35    1
    60    36    37    2
    61    87    97   am
    62    76    85   am
    63    76    75    1
    64    34    35    1
    65    44    42   ar
    66    53    54   ar
    67    53    51   ar
    68    54    52   ar
    69    51    50   ar
    70    52    50   ar
    71    78    75    1
    72    50    49    1
    73    40    42   ar
    74    75    74    1
    75    49    46    1
    76    97    98    1
    77    98    99    1
    78    69    68    2
    79    65    63    1
    80    74    68   am
    81    46    45    1
    82    46    47    1
    83    99   100    2
    84    99   101   am
    85    47    48    2
    86    68    67    1
    87    63    64    1
    88    63    62    2
    89   101   102    1
    90   113   110    1
    91   113   114    1
    92    62    61    1
    93    67    70    1
    94    67    66    1
    95   115   114    1
    96   115   109    1
    97   110   109    1
    98   110   111    1
    99   109   103   am
   100   103   102    1
   101   103   104    2
   102    70    71    1
   103   102   105    1
   104    61    60    1
   105   111   112    2
   106   105   106    1
   107    59    60    1
   108    59    56    1
   109    71    72    1
   110    71    73    1
   111    55    56    1
   112    57    56    1
   113    57    58    2
   114   106   107    2
   115   106   108   am
