@<TRIPOS>MOLECULE
tmp/1l5qA02.pdb
 127 127 0 0 0
SMALL
GASTEIGER

@<TRIPOS>ATOM
      1  N         72.5140  -64.4790   82.1930 N.3    39  ARG39      -0.1245
      2  CA        72.1260  -65.8320   82.5680 C.3    39  ARG39       0.1563
      3  C         73.2780  -66.8450   82.3960 C.2    39  ARG39       0.2260
      4  O         73.4560  -67.7450   83.2120 O.2    39  ARG39      -0.2867
      5  CB        70.9260  -66.2680   81.7240 C.3    39  ARG39       0.0307
      6  CG        70.3360  -67.5740   82.1480 C.3    39  ARG39       0.0489
      7  CD        69.2210  -67.9990   81.2130 C.3    39  ARG39       0.2205
      8  NE        69.7130  -68.6510   79.9960 N.pl3  39  ARG39      -0.0865
      9  CZ        68.9140  -69.1020   79.0410 C.cat  39  ARG39       0.5346
     10  NH1       67.6070  -68.9620   79.1680 N.pl3  39  ARG39       0.1354
     11  NH2       69.4190  -69.7050   77.9760 N.pl3  39  ARG39       0.1354
     12  N         75.4150  -67.5710   85.3940 N.3    42  LEU42      -0.1231
     13  CA        74.8360  -68.3240   86.4980 C.3    42  LEU42       0.1693
     14  C         75.0690  -69.8450   86.3970 C.2    42  LEU42       0.2591
     15  O         75.2250  -70.5370   87.4210 O.2    42  LEU42      -0.2718
     16  CB        73.3250  -68.1000   86.5470 C.3    42  LEU42       0.0284
     17  CG        72.7200  -66.7730   87.0100 C.3    42  LEU42       0.0019
     18  CD1       71.2140  -66.7690   86.7540 C.3    42  LEU42       0.0001
     19  CD2       73.0130  -66.5890   88.4740 C.3    42  LEU42       0.0001
     20  N         75.0780  -70.3620   85.1660 N.am   43  VAL43      -0.1980
     21  CA        75.1930  -71.7930   84.9280 C.3    43  VAL43       0.1595
     22  C         76.2410  -72.5900   85.7070 C.2    43  VAL43       0.2287
     23  O         75.8890  -73.5440   86.3990 O.2    43  VAL43      -0.2864
     24  CB        75.3940  -72.0760   83.4310 C.3    43  VAL43       0.0276
     25  CG1       75.4600  -73.5780   83.1840 C.3    43  VAL43       0.0022
     26  CG2       74.2590  -71.4500   82.6300 C.3    43  VAL43       0.0022
     27  N         75.4340  -72.6620   89.2440 N.3    46  TRP46      -0.1241
     28  CA        74.1590  -73.2980   89.5530 C.3    46  TRP46       0.1605
     29  C         74.3870  -74.7970   89.6260 C.2    46  TRP46       0.2264
     30  O         73.9160  -75.4770   90.5450 O.2    46  TRP46      -0.2867
     31  CB        73.1100  -72.9870   88.4950 C.3    46  TRP46       0.0550
     32  CG        71.7320  -73.2570   88.9580 C.ar   46  TRP46       0.0003
     33  CD1       71.3380  -73.5540   90.2280 C.ar   46  TRP46       0.0946
     34  CD2       70.5350  -73.1610   88.1760 C.ar   46  TRP46       0.0152
     35  NE1       69.9680  -73.6500   90.2890 N.ar   46  TRP46      -0.2442
     36  CE2       69.4490  -73.4130   89.0420 C.ar   46  TRP46       0.0810
     37  CE3       70.2760  -72.8790   86.8220 C.ar   46  TRP46       0.0012
     38  CZ2       68.1070  -73.3970   88.6020 C.ar   46  TRP46       0.0191
     39  CZ3       68.9400  -72.8590   86.3780 C.ar   46  TRP46       0.0001
     40  CH2       67.8740  -73.1170   87.2710 C.ar   46  TRP46       0.0015
     41  N         60.1040  -66.3900   79.2420 N.3   166  ASN166     -0.1226
     42  CA        60.7890  -66.0840   80.4970 C.3   166  ASN166      0.1770
     43  C         62.1620  -66.7360   80.4160 C.2   166  ASN166      0.2439
     44  O         62.2960  -67.9350   80.5920 O.2   166  ASN166     -0.2733
     45  CB        59.9830  -66.6450   81.6850 C.3   166  ASN166      0.1168
     46  CG        60.6980  -66.4800   83.0210 C.2   166  ASN166      0.2627
     47  OD1       61.6180  -65.6750   83.1480 O.2   166  ASN166     -0.2716
     48  ND2       60.2580  -67.2290   84.0300 N.am  166  ASN166     -0.0877
     49  N         63.2100  -65.9470   80.1610 N.am  167  PRO167     -0.2718
     50  CA        64.5440  -66.5510   80.0670 C.3   167  PRO167      0.1535
     51  C         65.0830  -67.0430   81.4030 C.2   167  PRO167      0.2599
     52  O         66.0660  -67.7800   81.4530 O.2   167  PRO167     -0.2715
     53  CB        65.3850  -65.4180   79.4970 C.3   167  PRO167      0.0310
     54  CG        64.7610  -64.1970   80.1480 C.3   167  PRO167      0.0237
     55  CD        63.2760  -64.4730   80.0510 C.3   167  PRO167      0.0939
     56  N         64.4200  -66.6510   82.4860 N.am  168  TRP168     -0.1960
     57  CA        64.8810  -67.0050   83.8140 C.3   168  TRP168      0.1771
     58  C         64.3750  -68.3350   84.3790 C.2   168  TRP168      0.2620
     59  O         64.6920  -68.6880   85.5270 O.2   168  TRP168     -0.2715
     60  CB        64.5520  -65.8490   84.7790 C.3   168  TRP168      0.0590
     61  CG        65.0770  -64.5250   84.3080 C.ar  168  TRP168      0.0006
     62  CD1       64.3450  -63.4350   83.9330 C.ar  168  TRP168      0.0946
     63  CD2       66.4510  -64.1600   84.1520 C.ar  168  TRP168      0.0152
     64  NE1       65.1870  -62.4040   83.5540 N.ar  168  TRP168     -0.2442
     65  CE2       66.4830  -62.8260   83.6770 C.ar  168  TRP168      0.0810
     66  CE3       67.6630  -64.8280   84.3670 C.ar  168  TRP168      0.0012
     67  CZ2       67.6850  -62.1500   83.4110 C.ar  168  TRP168      0.0191
     68  CZ3       68.8600  -64.1540   84.1070 C.ar  168  TRP168      0.0001
     69  CH2       68.8570  -62.8310   83.6350 C.ar  168  TRP168      0.0015
     70  N         63.6020  -69.0770   83.5880 N.am  169  GLU169     -0.1963
     71  CA        63.0890  -70.3710   84.0410 C.3   169  GLU169      0.1733
     72  C         63.6510  -71.5160   83.1940 C.2   169  GLU169      0.2616
     73  O         63.9430  -71.3530   82.0070 O.2   169  GLU169     -0.2715
     74  CB        61.5610  -70.4020   83.9810 C.3   169  GLU169      0.0429
     75  CG        61.0110  -70.2000   82.5640 C.3   169  GLU169      0.1163
     76  CD        59.5110  -70.2120   82.5210 C.2   169  GLU169      0.3649
     77  OE1       58.8790  -69.9060   83.5620 O.co2 169  GLU169     -0.2457
     78  OE2       58.9640  -70.5140   81.4420 O.co2 169  GLU169     -0.2457
     79  N         63.8090  -72.6780   83.8150 N.am  170  LYS170     -0.1963
     80  CA        64.3240  -73.8360   83.1150 C.3   170  LYS170      0.1728
     81  C         63.4240  -75.0300   83.3340 C.2   170  LYS170      0.2616
     82  O         63.3690  -75.6040   84.4170 O.2   170  LYS170     -0.2715
     83  CB        65.7270  -74.2030   83.5870 C.3   170  LYS170      0.0311
     84  CG        66.2710  -75.4980   82.9440 C.3   170  LYS170      0.0038
     85  CD        66.5120  -75.3030   81.4550 C.3   170  LYS170      0.0206
     86  CE        66.9920  -76.5860   80.7450 C.3   170  LYS170      0.1093
     87  NZ        65.8760  -77.5670   80.5020 N.3   170  LYS170     -0.1314
     88  N         62.7020  -75.3930   82.2970 N.am  171  SER171     -0.1950
     89  CA        61.8310  -76.5440   82.3720 C.3   171  SER171      0.1924
     90  C         62.6700  -77.7660   82.7990 C.2   171  SER171      0.2314
     91  O         63.8120  -77.9090   82.3720 O.2   171  SER171     -0.2863
     92  CB        61.2260  -76.7970   80.9990 C.3   171  SER171      0.2116
     93  OG        60.5370  -78.0230   81.0110 O.3   171  SER171     -0.2180
     94  N         61.6710  -81.2590   82.5080 N.3   173  PRO173     -0.2116
     95  CA        60.7730  -82.3360   82.0850 C.3   173  PRO173      0.1372
     96  C         61.0240  -83.6900   82.7200 C.2   173  PRO173      0.2244
     97  O         60.0810  -84.4240   83.0020 O.2   173  PRO173     -0.2868
     98  CB        60.9540  -82.3660   80.5610 C.3   173  PRO173      0.0268
     99  CG        62.3600  -81.8770   80.3840 C.3   173  PRO173      0.0207
    100  CD        62.4300  -80.7340   81.3550 C.3   173  PRO173      0.0892
    101  N         54.5380  -80.2710   85.9590 N.3   203  LEU203     -0.1245
    102  CA        55.8090  -80.0440   85.2810 C.3   203  LEU203      0.1561
    103  C         56.5600  -78.9510   86.0460 C.2   203  LEU203      0.2260
    104  O         56.0980  -77.8100   86.1560 O.2   203  LEU203     -0.2867
    105  CB        55.5530  -79.6080   83.8330 C.3   203  LEU203      0.0270
    106  CG        56.7550  -79.1470   82.9870 C.3   203  LEU203      0.0019
    107  CD1       57.8490  -80.2200   83.0040 C.3   203  LEU203      0.0001
    108  CD2       56.2990  -78.8430   81.5480 C.3   203  LEU203      0.0001
    109  N         59.5080  -76.1410   86.8610 N.3   205  TYR205     -0.1241
    110  CA        60.3580  -75.1700   86.1730 C.3   205  TYR205      0.1605
    111  C         61.2560  -74.5990   87.2530 C.2   205  TYR205      0.2264
    112  O         60.7630  -74.1140   88.2840 O.2   205  TYR205     -0.2867
    113  CB        59.5380  -74.0280   85.5610 C.3   205  TYR205      0.0534
    114  CG        58.8080  -74.3730   84.2790 C.ar  205  TYR205     -0.0201
    115  CD1       59.3130  -73.9760   83.0340 C.ar  205  TYR205     -0.0009
    116  CD2       57.6100  -75.0920   84.3060 C.ar  205  TYR205     -0.0009
    117  CE1       58.6510  -74.2860   81.8580 C.ar  205  TYR205      0.0417
    118  CE2       56.9370  -75.4030   83.1420 C.ar  205  TYR205      0.0417
    119  CZ        57.4580  -75.0000   81.9190 C.ar  205  TYR205      0.1957
    120  OH        56.7650  -75.3040   80.7590 O.3   205  TYR205     -0.2866
    121  N         66.9400  -69.9750   88.8860 N.3   208  PRO208     -0.2116
    122  CA        68.1180  -69.8100   89.7390 C.3   208  PRO208      0.1372
    123  C         67.9690  -68.6560   90.7230 C.2   208  PRO208      0.2244
    124  O         67.3950  -67.6200   90.3770 O.2   208  PRO208     -0.2868
    125  CB        69.2360  -69.5510   88.7300 C.3   208  PRO208      0.0268
    126  CG        68.5140  -68.7690   87.6530 C.3   208  PRO208      0.0207
    127  CD        67.2290  -69.5610   87.5030 C.3   208  PRO208      0.0892
@<TRIPOS>BOND
     1    11     9    1
     2     9    10    1
     3     9     8    2
     4    41    42    1
     5    53    50    1
     6    53    54    1
     7     8     7    1
     8    55    54    1
     9    55    49    1
    10    50    49    1
    11    50    51    1
    12    49    43   am
    13    99    98    1
    14    99   100    1
    15    43    42    1
    16    43    44    2
    17    42    45    1
    18    87    86    1
    19    98    95    1
    20    86    85    1
    21   120   119    1
    22    92    93    1
    23    92    89    1
    24     7     6    1
    25   100    94    1
    26    51    52    2
    27    51    56   am
    28    78    76   ar
    29    85    84    1
    30   108   106    1
    31    45    46    1
    32     5     6    1
    33     5     2    1
    34   117   119   ar
    35   117   115   ar
    36   119   118   ar
    37    73    72    2
    38    95    94    1
    39    95    96    1
    40     1     2    1
    41    88    89    1
    42    88    81   am
    43    89    90    1
    44    91    90    2
    45     3     2    1
    46     3     4    2
    47    56    57    1
    48    76    75    1
    49    76    77   ar
    50    75    74    1
    51    26    24    1
    52    96    97    2
    53    84    83    1
    54   106   107    1
    55   106   105    1
    56    46    47    2
    57    46    48   am
    58   115   114   ar
    59    80    81    1
    60    80    83    1
    61    80    79    1
    62   118   116   ar
    63    25    24    1
    64    72    79   am
    65    72    71    1
    66    81    82    2
    67    67    69   ar
    68    67    65   ar
    69    24    21    1
    70    64    65   ar
    71    64    62   ar
    72    70    71    1
    73    70    58   am
    74    69    68   ar
    75    65    63   ar
    76    57    58    1
    77    57    60    1
    78   105   102    1
    79    62    61   ar
    80    74    71    1
    81    68    66   ar
    82    63    61   ar
    83    63    66   ar
    84   114   116   ar
    85   114   113    1
    86    61    60    1
    87    58    59    2
    88    21    20    1
    89    21    22    1
    90    20    14   am
    91   102   101    1
    92   102   103    1
    93    12    13    1
    94   113   110    1
    95    22    23    2
    96   103   104    2
    97   110   109    1
    98   110   111    1
    99    39    37   ar
   100    39    40   ar
   101    14    13    1
   102    14    15    2
   103    13    16    1
   104    16    17    1
   105    18    17    1
   106    37    34   ar
   107    17    19    1
   108   111   112    2
   109    40    38   ar
   110   127   126    1
   111   127   121    1
   112   126   125    1
   113    34    32   ar
   114    34    36   ar
   115    31    32    1
   116    31    28    1
   117    38    36   ar
   118   125   122    1
   119   121   122    1
   120    32    33   ar
   121    36    35   ar
   122    27    28    1
   123    28    29    1
   124    29    30    2
   125   122   123    1
   126    33    35   ar
   127   124   123    2
