@<TRIPOS>MOLECULE
tmp/1l5rA03.pdb
 144 142 0 0 0
SMALL
GASTEIGER

@<TRIPOS>ATOM
      1  N         43.6090  -61.9390   95.9680 N.3   251  ASN251     -0.1225
      2  CA        43.0980  -61.4640   97.2460 C.3   251  ASN251      0.1785
      3  C         44.1860  -61.4190   98.3010 C.2   251  ASN251      0.2597
      4  O         44.9620  -62.3570   98.4420 O.2   251  ASN251     -0.2718
      5  CB        41.9740  -62.3810   97.7380 C.3   251  ASN251      0.1169
      6  CG        41.0110  -62.7520   96.6430 C.2   251  ASN251      0.2627
      7  OD1       40.5050  -61.8850   95.9310 O.2   251  ASN251     -0.2716
      8  ND2       40.7430  -64.0490   96.5020 N.am  251  ASN251     -0.0877
      9  N         44.2140  -60.3320   99.0610 N.am  252  ASP252     -0.1960
     10  CA        45.1970  -60.1540  100.1150 C.3   252  ASP252      0.1840
     11  C         44.4690  -60.2690  101.4510 C.2   252  ASP252      0.2622
     12  O         43.5570  -59.4910  101.7220 O.2   252  ASP252     -0.2715
     13  CB        45.8540  -58.7820   99.9610 C.3   252  ASP252      0.1450
     14  CG        46.9980  -58.5620  100.9370 C.2   252  ASP252      0.3671
     15  OD1       46.7600  -58.0740  102.0510 O.co2 252  ASP252     -0.2456
     16  OD2       48.1500  -58.8870  100.5900 O.co2 252  ASP252     -0.2456
     17  N         44.8550  -61.2450  102.2720 N.am  253  ASN253     -0.1958
     18  CA        44.1940  -61.4420  103.5630 C.3   253  ASN253      0.1819
     19  C         42.7130  -61.7520  103.3910 C.2   253  ASN253      0.2621
     20  O         41.8820  -61.2180  104.1180 O.2   253  ASN253     -0.2715
     21  CB        44.3280  -60.1860  104.4310 C.3   253  ASN253      0.1195
     22  CG        45.6360  -60.1370  105.1810 C.2   253  ASN253      0.2630
     23  OD1       45.7790  -60.7320  106.2530 O.2   253  ASN253     -0.2716
     24  ND2       46.6080  -59.4420  104.6110 N.am  253  ASN253     -0.0877
     25  N         42.3750  -62.6110  102.4360 N.am  254  PHE254     -0.1974
     26  CA        40.9820  -62.9430  102.2230 C.3   254  PHE254      0.1639
     27  C         40.8190  -64.3690  101.7270 C.2   254  PHE254      0.2290
     28  O         41.3500  -64.7360  100.6730 O.2   254  PHE254     -0.2864
     29  CB        40.3550  -61.9770  101.2080 C.3   254  PHE254      0.0560
     30  CG        38.9190  -62.2980  100.8810 C.ar  254  PHE254     -0.0200
     31  CD1       37.8910  -61.9540  101.7670 C.ar  254  PHE254     -0.0042
     32  CD2       38.5940  -62.9560   99.6970 C.ar  254  PHE254     -0.0042
     33  CE1       36.5540  -62.2580  101.4710 C.ar  254  PHE254     -0.0003
     34  CE2       37.2670  -63.2670   99.3930 C.ar  254  PHE254     -0.0003
     35  CZ        36.2420  -62.9160  100.2810 C.ar  254  PHE254     -0.0000
     36  N         43.3240  -61.5020  111.0580 N.3   341  LEU341     -0.1245
     37  CA        42.0900  -60.9630  110.4790 C.3   341  LEU341      0.1561
     38  C         41.1960  -62.1410  110.1160 C.2   341  LEU341      0.2260
     39  O         41.6290  -63.0720  109.4300 O.2   341  LEU341     -0.2867
     40  CB        42.3980  -60.1320  109.2300 C.3   341  LEU341      0.0270
     41  CG        43.1730  -58.8430  109.5080 C.3   341  LEU341      0.0019
     42  CD1       43.7720  -58.2760  108.2290 C.3   341  LEU341      0.0001
     43  CD2       42.2310  -57.8490  110.1430 C.3   341  LEU341      0.0001
     44  N         38.6380  -62.5880  107.9700 N.3   343  GLU343     -0.1245
     45  CA        38.3390  -62.8940  106.5720 C.3   343  GLU343      0.1567
     46  C         39.4520  -63.5970  105.8080 C.2   343  GLU343      0.2260
     47  O         39.2450  -64.0520  104.6780 O.2   343  GLU343     -0.2867
     48  CB        37.9220  -61.6240  105.8130 C.3   343  GLU343      0.0388
     49  CG        38.6340  -60.3780  106.2400 C.3   343  GLU343      0.1160
     50  CD        38.0220  -59.7810  107.4860 C.2   343  GLU343      0.3649
     51  OE1       38.7820  -59.4020  108.3940 O.co2 343  GLU343     -0.2457
     52  OE2       36.7800  -59.6830  107.5520 O.co2 343  GLU343     -0.2457
     53  N         43.0720  -51.6310  101.5710 N.3   532  HIS532     -0.1226
     54  CA        42.3890  -52.3760  102.6440 C.3   532  HIS532      0.1752
     55  C         41.7410  -51.3920  103.6280 C.2   532  HIS532      0.2596
     56  O         42.3040  -50.3490  103.9130 O.2   532  HIS532     -0.2718
     57  CB        43.4080  -53.1850  103.4650 C.3   532  HIS532      0.0759
     58  CG        43.7360  -54.5360  102.9100 C.ar  532  HIS532      0.0818
     59  ND1       42.8760  -55.6090  103.0030 N.ar  532  HIS532     -0.2268
     60  CD2       44.8680  -55.0090  102.3350 C.ar  532  HIS532      0.1154
     61  CE1       43.4680  -56.6850  102.5150 C.ar  532  HIS532      0.1986
     62  NE2       44.6760  -56.3460  102.1030 N.ar  532  HIS532     -0.2212
     63  N         40.5810  -51.7280  104.1710 N.am  533  GLU533     -0.1965
     64  CA        39.9740  -50.8400  105.1450 C.3   533  GLU533      0.1733
     65  C         40.8840  -50.8180  106.3670 C.2   533  GLU533      0.2616
     66  O         41.0450  -49.7770  106.9960 O.2   533  GLU533     -0.2715
     67  CB        38.5800  -51.3260  105.5590 C.3   533  GLU533      0.0429
     68  CG        37.5800  -51.3980  104.4150 C.3   533  GLU533      0.1163
     69  CD        36.2890  -52.0540  104.8290 C.2   533  GLU533      0.3649
     70  OE1       35.4670  -51.3750  105.4750 O.co2 533  GLU533     -0.2457
     71  OE2       36.1000  -53.2510  104.5240 O.co2 533  GLU533     -0.2457
     72  N         41.4890  -51.9650  106.6860 N.am  534  TYR534     -0.1974
     73  CA        42.3720  -52.0800  107.8460 C.3   534  TYR534      0.1639
     74  C         43.6950  -51.3420  107.7140 C.2   534  TYR534      0.2290
     75  O         44.2870  -50.9590  108.7220 O.2   534  TYR534     -0.2864
     76  CB        42.6140  -53.5640  108.2090 C.3   534  TYR534      0.0560
     77  CG        43.8510  -54.2410  107.6470 C.ar  534  TYR534     -0.0198
     78  CD1       45.1140  -54.0230  108.2040 C.ar  534  TYR534     -0.0009
     79  CD2       43.7440  -55.1840  106.6250 C.ar  534  TYR534     -0.0009
     80  CE1       46.2380  -54.7360  107.7700 C.ar  534  TYR534      0.0417
     81  CE2       44.8590  -55.9030  106.1740 C.ar  534  TYR534      0.0417
     82  CZ        46.0990  -55.6800  106.7530 C.ar  534  TYR534      0.1957
     83  OH        47.1780  -56.4240  106.3110 O.3   534  TYR534     -0.2866
     84  N         41.4890  -56.0330   95.7510 N.3   571  ALA571     -0.1245
     85  CA        41.0930  -57.3260   95.2010 C.3   571  ALA571      0.1562
     86  C         39.8580  -57.0160   94.3520 C.2   571  ALA571      0.2260
     87  O         39.1250  -56.0810   94.6480 O.2   571  ALA571     -0.2867
     88  CB        40.7690  -58.3020   96.3100 C.3   571  ALA571      0.0290
     89  N         36.8660  -58.4110   94.0320 N.3   573  GLY573     -0.1210
     90  CA        35.5730  -58.4330   94.6920 C.3   573  GLY573      0.1956
     91  C         35.4220  -57.4910   95.8720 C.2   573  GLY573      0.2612
     92  O         34.3200  -57.3420   96.4000 O.2   573  GLY573     -0.2717
     93  N         36.5100  -56.8510   96.2950 N.am  574  TYR574     -0.1962
     94  CA        36.4680  -55.9440   97.4490 C.3   574  TYR574      0.1771
     95  C         35.8200  -54.5990   97.1140 C.2   574  TYR574      0.2619
     96  O         36.4970  -53.6490   96.7800 O.2   574  TYR574     -0.2715
     97  CB        37.8900  -55.7240   97.9800 C.3   574  TYR574      0.0574
     98  CG        37.9860  -55.2680   99.4320 C.ar  574  TYR574     -0.0198
     99  CD1       36.8840  -54.7220  100.0970 C.ar  574  TYR574     -0.0009
    100  CD2       39.2000  -55.3570  100.1310 C.ar  574  TYR574     -0.0009
    101  CE1       36.9820  -54.2740  101.4170 C.ar  574  TYR574      0.0417
    102  CE2       39.3120  -54.9110  101.4480 C.ar  574  TYR574      0.0417
    103  CZ        38.1980  -54.3700  102.0870 C.ar  574  TYR574      0.1957
    104  OH        38.2980  -53.9260  103.3950 O.3   574  TYR574     -0.2866
    105  N         34.5020  -54.5250   97.2250 N.am  575  HIS575     -0.1973
    106  CA        33.7590  -53.3040   96.9320 C.3   575  HIS575      0.1656
    107  C         34.1890  -52.0410   97.6860 C.2   575  HIS575      0.2291
    108  O         34.2690  -50.9590   97.1040 O.2   575  HIS575     -0.2864
    109  CB        32.2710  -53.5240   97.2010 C.3   575  HIS575      0.0771
    110  CG        31.4320  -52.3010   96.9760 C.ar  575  HIS575      0.0820
    111  ND1       31.1780  -51.7940   95.7220 N.ar  575  HIS575     -0.2267
    112  CD2       30.8250  -51.4630   97.8490 C.ar  575  HIS575      0.1154
    113  CE1       30.4490  -50.6970   95.8290 C.ar  575  HIS575      0.1986
    114  NE2       30.2230  -50.4730   97.1100 N.ar  575  HIS575     -0.2212
    115  N         29.4870  -47.0570  106.2050 N.3   725  MET725     -0.1245
    116  CA        30.4290  -47.9300  106.8830 C.3   725  MET725      0.1570
    117  C         31.1710  -47.1850  107.9910 C.2   725  MET725      0.2261
    118  O         31.3200  -47.6980  109.0970 O.2   725  MET725     -0.2867
    119  CB        31.4060  -48.5260  105.8650 C.3   725  MET725      0.0387
    120  CG        32.5030  -49.3690  106.4750 C.3   725  MET725      0.0595
    121  SD        33.8780  -48.3100  106.9490 S.3   725  MET725     -0.1393
    122  CE        34.7680  -48.2670  105.3810 C.3   725  MET725      0.0692
    123  N         34.8480  -51.2600  111.4770 N.3   731  ARG731     -0.1231
    124  CA        35.5750  -52.1620  112.3500 C.3   731  ARG731      0.1694
    125  C         37.0110  -51.6740  112.5880 C.2   731  ARG731      0.2592
    126  O         37.6840  -52.1410  113.5040 O.2   731  ARG731     -0.2718
    127  CB        35.5990  -53.5620  111.7220 C.3   731  ARG731      0.0321
    128  CG        35.7600  -54.7060  112.7050 C.3   731  ARG731      0.0489
    129  CD        36.3020  -55.9520  112.0050 C.3   731  ARG731      0.2205
    130  NE        35.7670  -56.0990  110.6550 N.pl3 731  ARG731     -0.0865
    131  CZ        36.1690  -57.0270  109.7910 C.cat 731  ARG731      0.5346
    132  NH1       37.1140  -57.8950  110.1370 N.pl3 731  ARG731      0.1354
    133  NH2       35.6410  -57.0830  108.5770 N.pl3 731  ARG731      0.1354
    134  N         37.4750  -50.7230  111.7790 N.am  732  PHE732     -0.1976
    135  CA        38.8550  -50.2400  111.9040 C.3   732  PHE732      0.1639
    136  C         39.0250  -48.8420  112.4580 C.2   732  PHE732      0.2290
    137  O         40.1060  -48.2520  112.3990 O.2   732  PHE732     -0.2864
    138  CB        39.5470  -50.4140  110.5610 C.3   732  PHE732      0.0560
    139  CG        39.4540  -51.8140  110.0600 C.ar  732  PHE732     -0.0200
    140  CD1       40.1290  -52.8440  110.7210 C.ar  732  PHE732     -0.0042
    141  CD2       38.5960  -52.1360  109.0150 C.ar  732  PHE732     -0.0042
    142  CE1       39.9480  -54.1650  110.3600 C.ar  732  PHE732     -0.0003
    143  CE2       38.4040  -53.4680  108.6400 C.ar  732  PHE732     -0.0003
    144  CZ        39.0830  -54.4810  109.3170 C.ar  732  PHE732     -0.0000
@<TRIPOS>BOND
     1    89    90    1
     2    86    87    2
     3    86    85    1
     4    90    91    1
     5    85    84    1
     6    85    88    1
     7   111   113   ar
     8   111   110   ar
     9   113   114   ar
    10    91    93   am
    11    91    92    2
    12     7     6    2
    13     1     2    1
    14    93    94    1
    15     8     6   am
    16     6     5    1
    17    96    95    2
    18   106   109    1
    19   106   105    1
    20   106   107    1
    21   110   109    1
    22   110   112   ar
    23   108   107    2
    24   114   112   ar
    25    95   105   am
    26    95    94    1
    27     2     5    1
    28     2     3    1
    29    94    97    1
    30    97    98    1
    31     3     4    2
    32     3     9   am
    33     9    10    1
    34    34    32   ar
    35    34    35   ar
    36    98    99   ar
    37    98   100   ar
    38    32    30   ar
    39    13    10    1
    40    13    14    1
    41    99   101   ar
    42    10    11    1
    43   100   102   ar
    44    35    33   ar
    45    16    14   ar
    46    28    27    2
    47    30    29    1
    48    30    31   ar
    49    14    15   ar
    50    29    26    1
    51   101   103   ar
    52   102   103   ar
    53    11    12    2
    54    11    17   am
    55    33    31   ar
    56    53    54    1
    57    27    26    1
    58   103   104    1
    59    62    60   ar
    60    62    61   ar
    61    26    25    1
    62    17    18    1
    63    60    58   ar
    64    25    19   am
    65    61    59   ar
    66    54    57    1
    67    54    55    1
    68    58    59   ar
    69    58    57    1
    70    19    18    1
    71    19    20    2
    72    18    21    1
    73    55    56    2
    74    55    63   am
    75    63    64    1
    76    68    69    1
    77    68    67    1
    78    21    22    1
    79    71    69   ar
    80    24    22   am
    81    47    46    2
    82    69    70   ar
    83    64    67    1
    84    64    65    1
    85    22    23    2
    86   122   121    1
    87    46    45    1
    88    48    49    1
    89    48    45    1
    90   119   120    1
    91   119   116    1
    92    81    79   ar
    93    81    82   ar
    94   115   116    1
    95    49    50    1
    96    83    82    1
    97    65    72   am
    98    65    66    2
    99   120   121    1
   100    45    44    1
   101    79    77   ar
   102    72    73    1
   103    82    80   ar
   104   116   117    1
   105    50    52   ar
   106    50    51   ar
   107    77    78   ar
   108    77    76    1
   109    74    73    1
   110    74    75    2
   111    80    78   ar
   112    73    76    1
   113   117   118    2
   114    42    41    1
   115   133   131    1
   116   143   141   ar
   117   143   144   ar
   118   141   139   ar
   119    40    41    1
   120    40    37    1
   121   144   142   ar
   122    39    38    2
   123    41    43    1
   124   131   132    1
   125   131   130    2
   126   139   138    1
   127   139   140   ar
   128    38    37    1
   129   142   140   ar
   130    37    36    1
   131   138   135    1
   132   130   129    1
   133   123   124    1
   134   127   124    1
   135   127   128    1
   136   134   135    1
   137   134   125   am
   138   135   136    1
   139   129   128    1
   140   124   125    1
   141   137   136    2
   142   125   126    2
