@<TRIPOS>MOLECULE
tmp/1l5sB04.pdb
 104 100 0 0 0
SMALL
GASTEIGER

@<TRIPOS>ATOM
      1  N         39.9240  -83.9340   59.9640 N.3   251  ASN251     -0.1225
      2  CA        39.2320  -84.4430   58.7770 C.3   251  ASN251      0.1785
      3  C         40.0430  -84.3600   57.4830 C.2   251  ASN251      0.2597
      4  O         40.6220  -83.3280   57.1680 O.2   251  ASN251     -0.2718
      5  CB        37.9250  -83.6800   58.5610 C.3   251  ASN251      0.1169
      6  CG        37.0150  -83.7590   59.7510 C.2   251  ASN251      0.2627
      7  OD1       36.6850  -84.8500   60.2170 O.2   251  ASN251     -0.2716
      8  ND2       36.6120  -82.6000   60.2710 N.am  251  ASN251     -0.0877
      9  N         40.0810  -85.4630   56.7460 N.am  252  ASP252     -0.1960
     10  CA        40.7820  -85.5090   55.4720 C.3   252  ASP252      0.1840
     11  C         39.7090  -85.7470   54.4240 C.2   252  ASP252      0.2622
     12  O         38.9780  -86.7440   54.4920 O.2   252  ASP252     -0.2715
     13  CB        41.8000  -86.6490   55.4540 C.3   252  ASP252      0.1450
     14  CG        42.4710  -86.8190   54.0860 C.2   252  ASP252      0.3671
     15  OD1       41.8050  -87.2430   53.1100 O.co2 252  ASP252     -0.2456
     16  OD2       43.6780  -86.5240   53.9970 O.co2 252  ASP252     -0.2456
     17  N         39.5870  -84.8320   53.4730 N.am  253  ASN253     -0.1958
     18  CA        38.5720  -84.9660   52.4290 C.3   253  ASN253      0.1819
     19  C         37.1560  -85.0200   52.9800 C.2   253  ASN253      0.2621
     20  O         36.3470  -85.8390   52.5550 O.2   253  ASN253     -0.2715
     21  CB        38.8130  -86.2210   51.5970 C.3   253  ASN253      0.1195
     22  CG        39.6820  -85.9540   50.4130 C.2   253  ASN253      0.2630
     23  OD1       39.2990  -85.2140   49.5090 O.2   253  ASN253     -0.2716
     24  ND2       40.8730  -86.5450   50.4080 N.am  253  ASN253     -0.0877
     25  N         36.8580  -84.1550   53.9300 N.am  254  PHE254     -0.1974
     26  CA        35.5220  -84.1240   54.5060 C.3   254  PHE254      0.1639
     27  C         35.2340  -82.7520   55.0670 C.2   254  PHE254      0.2290
     28  O         36.0730  -82.1660   55.7580 O.2   254  PHE254     -0.2864
     29  CB        35.3850  -85.1380   55.6300 C.3   254  PHE254      0.0560
     30  CG        34.0000  -85.1960   56.2200 C.ar  254  PHE254     -0.0200
     31  CD1       32.9520  -85.7780   55.5120 C.ar  254  PHE254     -0.0042
     32  CD2       33.7490  -84.6870   57.4990 C.ar  254  PHE254     -0.0042
     33  CE1       31.6800  -85.8610   56.0610 C.ar  254  PHE254     -0.0003
     34  CE2       32.4800  -84.7630   58.0610 C.ar  254  PHE254     -0.0003
     35  CZ        31.4420  -85.3530   57.3400 C.ar  254  PHE254     -0.0000
     36  N         33.2670  -80.4290   57.5930 N.3   256  GLU256     -0.1245
     37  CA        32.5280  -80.4000   58.8430 C.3   256  GLU256      0.1567
     38  C         32.2940  -78.9050   59.0720 C.2   256  GLU256      0.2260
     39  O         33.2470  -78.1410   59.2890 O.2   256  GLU256     -0.2867
     40  CB        33.3540  -81.0140   59.9880 C.3   256  GLU256      0.0388
     41  CG        32.5240  -81.2510   61.2380 C.3   256  GLU256      0.1160
     42  CD        33.2900  -81.8530   62.4060 C.2   256  GLU256      0.3649
     43  OE1       32.7040  -81.9040   63.5040 O.co2 256  GLU256     -0.2457
     44  OE2       34.4550  -82.2820   62.2520 O.co2 256  GLU256     -0.2457
     45  N         31.2800  -84.8070   49.7630 N.3   343  GLU343     -0.1245
     46  CA        31.3020  -84.6350   51.2060 C.3   343  GLU343      0.1567
     47  C         32.4540  -83.7330   51.6200 C.2   343  GLU343      0.2260
     48  O         32.4940  -83.2370   52.7500 O.2   343  GLU343     -0.2867
     49  CB        31.4420  -85.9860   51.9120 C.3   343  GLU343      0.0388
     50  CG        32.6740  -86.7770   51.5050 C.3   343  GLU343      0.1160
     51  CD        32.4110  -87.7520   50.3570 C.2   343  GLU343      0.3649
     52  OE1       31.8220  -87.3570   49.3320 O.co2 343  GLU343     -0.2457
     53  OE2       32.8100  -88.9220   50.4870 O.co2 343  GLU343     -0.2457
     54  N         39.8500  -94.3180   54.4320 N.3   532  HIS532     -0.1226
     55  CA        38.7360  -93.7460   53.6740 C.3   532  HIS532      0.1752
     56  C         37.9790  -94.8340   52.9370 C.2   532  HIS532      0.2595
     57  O         38.5640  -95.8520   52.5790 O.2   532  HIS532     -0.2718
     58  CB        39.2780  -92.8240   52.5940 C.3   532  HIS532      0.0759
     59  CG        39.3730  -91.3960   52.9980 C.ar  532  HIS532      0.0818
     60  ND1       38.2680  -90.5770   53.0830 N.ar  532  HIS532     -0.2268
     61  CD2       40.4460  -90.6230   53.2850 C.ar  532  HIS532      0.1154
     62  CE1       38.6600  -89.3580   53.4040 C.ar  532  HIS532      0.1986
     63  NE2       39.9750  -89.3590   53.5330 N.ar  532  HIS532     -0.2212
     64  N         36.6960  -94.6220   52.6730 N.am  533  GLU533     -0.1979
     65  CA        35.9810  -95.6230   51.8990 C.3   533  GLU533      0.1602
     66  C         36.5060  -95.5320   50.4590 C.2   533  GLU533      0.2287
     67  O         36.8100  -96.5480   49.8460 O.2   533  GLU533     -0.2864
     68  CB        34.4680  -95.3990   51.9430 C.3   533  GLU533      0.0415
     69  CG        33.8480  -95.8490   53.2610 C.3   533  GLU533      0.1163
     70  CD        32.4490  -95.2900   53.4730 C.2   533  GLU533      0.3649
     71  OE1       31.4670  -95.9440   53.0690 O.co2 533  GLU533     -0.2457
     72  OE2       32.3380  -94.1780   54.0340 O.co2 533  GLU533     -0.2457
     73  N         39.3220  -90.3070   60.7140 N.3   571  ALA571     -0.1245
     74  CA        38.8070  -89.1050   61.3460 C.3   571  ALA571      0.1562
     75  C         37.9760  -89.6210   62.5300 C.2   571  ALA571      0.2260
     76  O         37.2200  -90.5770   62.3930 O.2   571  ALA571     -0.2867
     77  CB        37.9330  -88.3570   60.3770 C.3   571  ALA571      0.0290
     78  N         35.2010  -88.7890   63.9390 N.3   573  GLY573     -0.1210
     79  CA        33.7640  -88.9130   63.7160 C.3   573  GLY573      0.1956
     80  C         33.3600  -89.7110   62.4820 C.2   573  GLY573      0.2611
     81  O         32.1890  -89.7170   62.1040 O.2   573  GLY573     -0.2717
     82  N         34.3220  -90.3800   61.8490 N.am  574  TYR574     -0.1976
     83  CA        34.0650  -91.1680   60.6370 C.3   574  TYR574      0.1639
     84  C         33.8050  -92.6260   61.0380 C.2   574  TYR574      0.2290
     85  O         34.7260  -93.4230   61.1780 O.2   574  TYR574     -0.2864
     86  CB        35.2830  -91.0710   59.7110 C.3   574  TYR574      0.0560
     87  CG        35.0730  -91.5300   58.2800 C.ar  574  TYR574     -0.0198
     88  CD1       33.8860  -92.1620   57.8810 C.ar  574  TYR574     -0.0009
     89  CD2       36.0740  -91.3370   57.3230 C.ar  574  TYR574     -0.0009
     90  CE1       33.7050  -92.5890   56.5630 C.ar  574  TYR574      0.0417
     91  CE2       35.9080  -91.7570   56.0070 C.ar  574  TYR574      0.0417
     92  CZ        34.7260  -92.3820   55.6320 C.ar  574  TYR574      0.1957
     93  OH        34.5790  -92.8190   54.3390 O.3   574  TYR574     -0.2866
     94  N         29.1850  -96.4230   47.2080 N.3   731  ARG731     -0.1245
     95  CA        29.4300  -95.5950   46.0340 C.3   731  ARG731      0.1563
     96  C         30.8410  -95.6600   45.5010 C.2   731  ARG731      0.2260
     97  O         31.1670  -94.9720   44.5410 O.2   731  ARG731     -0.2867
     98  CB        29.0300  -94.1380   46.2830 C.3   731  ARG731      0.0307
     99  CG        29.3830  -93.5780   47.6240 C.3   731  ARG731      0.0489
    100  CD        28.7790  -92.1860   47.7500 C.3   731  ARG731      0.2205
    101  NE        29.3010  -91.4760   48.9100 N.pl3 731  ARG731     -0.0865
    102  CZ        30.0420  -90.3720   48.8460 C.cat 731  ARG731      0.5346
    103  NH1       30.3540  -89.8310   47.6740 N.pl3 731  ARG731      0.1354
    104  NH2       30.4750  -89.8140   49.9640 N.pl3 731  ARG731      0.1354
@<TRIPOS>BOND
     1    97    96    2
     2    96    95    1
     3    95    98    1
     4    95    94    1
     5    98    99    1
     6    99   100    1
     7   103   102    1
     8   100   101    1
     9   102   101    2
    10   102   104    1
    11    52    51   ar
    12    23    22    2
    13    45    46    1
    14    67    66    2
    15    51    53   ar
    16    51    50    1
    17    24    22   am
    18    22    21    1
    19    66    65    1
    20    46    47    1
    21    46    49    1
    22    50    49    1
    23    21    18    1
    24    47    48    2
    25    65    68    1
    26    65    64    1
    27    68    69    1
    28    18    19    1
    29    18    17    1
    30    20    19    2
    31    57    56    2
    32    58    59    1
    33    58    55    1
    34    64    56   am
    35    56    55    1
    36    19    25   am
    37    59    60   ar
    38    59    61   ar
    39    71    70   ar
    40    60    62   ar
    41    15    14   ar
    42    69    70    1
    43    61    63   ar
    44    62    63   ar
    45    70    72   ar
    46    17    11   am
    47    55    54    1
    48    25    26    1
    49    16    14   ar
    50    14    13    1
    51    93    92    1
    52    11    12    2
    53    11    10    1
    54    26    27    1
    55    26    29    1
    56    27    28    2
    57    13    10    1
    58    10     9    1
    59    31    33   ar
    60    31    30   ar
    61    29    30    1
    62    92    91   ar
    63    92    90   ar
    64    91    89   ar
    65    33    35   ar
    66    30    32   ar
    67    90    88   ar
    68     9     3   am
    69     4     3    2
    70    89    87   ar
    71    35    34   ar
    72     3     2    1
    73    32    34   ar
    74    36    37    1
    75    88    87   ar
    76    87    86    1
    77     5     2    1
    78     5     6    1
    79     2     1    1
    80    37    38    1
    81    37    40    1
    82    38    39    2
    83    86    83    1
    84     6     7    2
    85     6     8   am
    86    40    41    1
    87    77    74    1
    88    83    84    1
    89    83    82    1
    90    73    74    1
    91    84    85    2
    92    41    42    1
    93    74    75    1
    94    82    80   am
    95    81    80    2
    96    44    42   ar
    97    76    75    2
    98    42    43   ar
    99    80    79    1
   100    79    78    1
