@<TRIPOS>MOLECULE
tmp/1l5sA06.pdb
 85 81 0 0 0
SMALL
GASTEIGER

@<TRIPOS>ATOM
      1  N         43.0860  -47.2770   85.9230 N.3   149  ILE149     -0.1231
      2  CA        42.1000  -46.4140   86.5550 C.3   149  ILE149      0.1692
      3  C         41.2760  -45.8220   85.4200 C.2   149  ILE149      0.2592
      4  O         41.8350  -45.1720   84.5450 O.2   149  ILE149     -0.2718
      5  CB        42.7330  -45.2470   87.3340 C.3   149  ILE149      0.0266
      6  CG1       43.5680  -45.7710   88.5060 C.3   149  ILE149      0.0019
      7  CG2       41.6140  -44.3030   87.8370 C.3   149  ILE149      0.0020
      8  CD1       42.7880  -46.5580   89.5470 C.3   149  ILE149      0.0001
      9  N         39.9690  -46.0740   85.4140 N.am  150  ARG150     -0.1966
     10  CA        39.0900  -45.5400   84.3740 C.3   150  ARG150      0.1729
     11  C         37.9660  -44.7540   85.0180 C.2   150  ARG150      0.2616
     12  O         37.1820  -45.3030   85.8000 O.2   150  ARG150     -0.2715
     13  CB        38.4850  -46.6600   83.5260 C.3   150  ARG150      0.0348
     14  CG        39.5000  -47.3590   82.6420 C.3   150  ARG150      0.0492
     15  CD        40.0530  -46.4070   81.5960 C.3   150  ARG150      0.2205
     16  NE        41.4410  -46.7120   81.2290 N.pl3 150  ARG150     -0.0865
     17  CZ        41.8580  -47.8820   80.7540 C.cat 150  ARG150      0.5346
     18  NH1       40.9950  -48.8840   80.5810 N.pl3 150  ARG150      0.1354
     19  NH2       43.1440  -48.0440   80.4500 N.pl3 150  ARG150      0.1354
     20  N         37.8910  -43.4690   84.6710 N.am  151  ASP151     -0.1957
     21  CA        36.8760  -42.5880   85.2240 C.3   151  ASP151      0.1840
     22  C         36.9690  -42.6140   86.7540 C.2   151  ASP151      0.2622
     23  O         35.9590  -42.5840   87.4520 O.2   151  ASP151     -0.2715
     24  CB        35.4760  -43.0160   84.7490 C.3   151  ASP151      0.1450
     25  CG        34.3890  -42.0200   85.1500 C.2   151  ASP151      0.3671
     26  OD1       34.6240  -40.7950   85.0260 O.co2 151  ASP151     -0.2456
     27  OD2       33.2950  -42.4480   85.5840 O.co2 151  ASP151     -0.2456
     28  N         38.2000  -42.6890   87.2580 N.am  152  GLY152     -0.1954
     29  CA        38.4280  -42.6940   88.6910 C.3   152  GLY152      0.1869
     30  C         38.2890  -44.0280   89.4020 C.2   152  GLY152      0.2309
     31  O         38.5770  -44.1020   90.6040 O.2   152  GLY152     -0.2863
     32  N         53.6700  -39.6360   83.5680 N.3   514  GLU514     -0.1231
     33  CA        52.6060  -40.6280   83.6950 C.3   514  GLU514      0.1699
     34  C         51.2550  -40.0100   84.0250 C.2   514  GLU514      0.2592
     35  O         50.2180  -40.5710   83.6840 O.2   514  GLU514     -0.2718
     36  CB        52.9660  -41.6690   84.7600 C.3   514  GLU514      0.0402
     37  CG        54.1120  -42.5940   84.3560 C.3   514  GLU514      0.1161
     38  CD        53.6620  -43.7660   83.4970 C.2   514  GLU514      0.3649
     39  OE1       52.7940  -43.5740   82.6190 O.co2 514  GLU514     -0.2457
     40  OE2       54.1860  -44.8830   83.6950 O.co2 514  GLU514     -0.2457
     41  N         51.2650  -38.8600   84.6920 N.am  515  TYR515     -0.1962
     42  CA        50.0220  -38.1820   85.0510 C.3   515  TYR515      0.1771
     43  C         50.0470  -36.7200   84.6020 C.2   515  TYR515      0.2619
     44  O         51.0970  -36.1820   84.2670 O.2   515  TYR515     -0.2715
     45  CB        49.7800  -38.2620   86.5700 C.3   515  TYR515      0.0574
     46  CG        49.8680  -39.6650   87.1360 C.ar  515  TYR515     -0.0198
     47  CD1       51.1000  -40.2420   87.4360 C.ar  515  TYR515     -0.0009
     48  CD2       48.7200  -40.4390   87.3190 C.ar  515  TYR515     -0.0009
     49  CE1       51.1910  -41.5520   87.8960 C.ar  515  TYR515      0.0417
     50  CE2       48.8010  -41.7630   87.7860 C.ar  515  TYR515      0.0417
     51  CZ        50.0440  -42.3090   88.0660 C.ar  515  TYR515      0.1957
     52  OH        50.1430  -43.6150   88.4870 O.3   515  TYR515     -0.2866
     53  N         48.8850  -36.0830   84.5750 N.am  516  LYS516     -0.1977
     54  CA        48.8040  -34.6730   84.1770 C.3   516  LYS516      0.1596
     55  C         49.6800  -33.8170   85.0900 C.2   516  LYS516      0.2287
     56  O         50.6840  -33.2520   84.6760 O.2   516  LYS516     -0.2864
     57  CB        47.3570  -34.1860   84.2840 C.3   516  LYS516      0.0298
     58  CG        47.1980  -32.6680   84.4230 C.3   516  LYS516      0.0038
     59  CD        47.6080  -31.9310   83.1470 C.3   516  LYS516      0.0206
     60  CE        47.2560  -30.4570   83.2150 C.3   516  LYS516      0.1093
     61  NZ        47.4650  -29.8030   81.8940 N.3   516  LYS516     -0.1314
     62  N         40.5560  -40.7460   94.0740 N.3   586  THR586     -0.1218
     63  CA        40.7190  -40.1420   92.7550 C.3   586  THR586      0.1862
     64  C         39.8390  -38.8980   92.5990 C.2   586  THR586      0.2287
     65  O         40.2340  -37.9250   91.9430 O.2   586  THR586     -0.2866
     66  CB        40.3850  -41.1370   91.6140 C.3   586  THR586      0.1770
     67  OG1       39.0100  -41.5540   91.7040 O.3   586  THR586     -0.2211
     68  CG2       41.3030  -42.3590   91.7020 C.3   586  THR586      0.0375
     69  N         41.2530  -35.0090   91.9980 N.3   590  ASP590     -0.1239
     70  CA        40.8070  -34.2150   90.8500 C.3   590  ASP590      0.1674
     71  C         40.3990  -32.7910   91.2490 C.2   590  ASP590      0.2266
     72  O         40.5850  -31.8400   90.4860 O.2   590  ASP590     -0.2867
     73  CB        39.6180  -34.8950   90.1590 C.3   590  ASP590      0.1410
     74  CG        40.0360  -36.0080   89.2110 C.2   590  ASP590      0.3668
     75  OD1       41.2420  -36.3220   89.1260 O.co2 590  ASP590     -0.2456
     76  OD2       39.1470  -36.5740   88.5470 O.co2 590  ASP590     -0.2456
     77  N         49.0930  -45.6310   90.1730 N.3   608  GLU608     -0.1245
     78  CA        48.4790  -46.7940   89.5560 C.3   608  GLU608      0.1567
     79  C         49.3640  -48.0160   89.4180 C.2   608  GLU608      0.2260
     80  O         50.5740  -47.9170   89.2330 O.2   608  GLU608     -0.2867
     81  CB        47.9110  -46.4250   88.1750 C.3   608  GLU608      0.0388
     82  CG        47.1260  -45.1030   88.1770 C.3   608  GLU608      0.1160
     83  CD        46.4530  -44.7870   86.8360 C.2   608  GLU608      0.3649
     84  OE1       46.6550  -45.5360   85.8530 O.co2 608  GLU608     -0.2457
     85  OE2       45.7180  -43.7770   86.7790 O.co2 608  GLU608     -0.2457
@<TRIPOS>BOND
     1    19    17    1
     2    18    17    1
     3    17    16    2
     4    16    15    1
     5    15    14    1
     6    61    60    1
     7    39    38   ar
     8    14    13    1
     9    59    60    1
    10    59    58    1
    11    38    40   ar
    12    38    37    1
    13    13    10    1
    14    32    33    1
    15    35    34    2
    16    33    34    1
    17    33    36    1
    18    34    41   am
    19    54    57    1
    20    54    53    1
    21    54    55    1
    22    44    43    2
    23    57    58    1
    24    37    36    1
    25    10    11    1
    26    10     9    1
    27     4     3    2
    28    53    43   am
    29    43    42    1
    30    20    11   am
    31    20    21    1
    32    56    55    2
    33    41    42    1
    34    24    25    1
    35    24    21    1
    36    11    12    2
    37    26    25   ar
    38    42    45    1
    39    25    27   ar
    40    21    22    1
    41     9     3   am
    42     3     2    1
    43    84    83   ar
    44     1     2    1
    45     2     5    1
    46    45    46    1
    47    22    28   am
    48    22    23    2
    49    85    83   ar
    50    83    82    1
    51    46    48   ar
    52    46    47   ar
    53    28    29    1
    54    48    50   ar
    55     5     7    1
    56     5     6    1
    57    47    49   ar
    58    50    51   ar
    59    49    51   ar
    60    51    52    1
    61    81    82    1
    62    81    78    1
    63     6     8    1
    64    76    74   ar
    65    29    30    1
    66    75    74   ar
    67    74    73    1
    68    80    79    2
    69    30    31    2
    70    79    78    1
    71    78    77    1
    72    73    70    1
    73    72    71    2
    74    70    71    1
    75    70    69    1
    76    66    68    1
    77    66    67    1
    78    66    63    1
    79    65    64    2
    80    64    63    1
    81    63    62    1
