@<TRIPOS>MOLECULE
tmp/1l6fB01.pdb
 130 123 0 0 0
SMALL
GASTEIGER

@<TRIPOS>ATOM
      1  N         28.6440   47.7460   87.8790 N.3    36  VAL36      -0.1245
      2  CA        27.6030   47.1460   87.0460 C.3    36  VAL36       0.1561
      3  C         27.8280   45.6410   86.9380 C.2    36  VAL36       0.2260
      4  O         28.7650   45.1880   86.2750 O.2    36  VAL36      -0.2867
      5  CB        27.5960   47.7650   85.6410 C.3    36  VAL36       0.0252
      6  CG1       26.4010   47.2630   84.8550 C.3    36  VAL36       0.0019
      7  CG2       27.5570   49.2810   85.7520 C.3    36  VAL36       0.0019
      8  N         25.1780   43.2700   86.0730 N.3    38  LYS38      -0.1245
      9  CA        24.0260   42.6170   85.4460 C.3    38  LYS38       0.1561
     10  C         24.5330   41.4850   84.5510 C.2    38  LYS38       0.2260
     11  O         25.7230   41.3890   84.2850 O.2    38  LYS38      -0.2867
     12  CB        23.2290   43.6080   84.5990 C.3    38  LYS38       0.0271
     13  CG        24.0460   44.3490   83.5570 C.3    38  LYS38       0.0035
     14  CD        23.2960   45.5600   83.0480 C.3    38  LYS38       0.0206
     15  CE        24.2140   46.5010   82.3050 C.3    38  LYS38       0.1093
     16  NZ        24.1720   46.2800   80.8350 N.3    38  LYS38      -0.1314
     17  N         28.5000   40.1760   83.6240 N.3    42  TYR42      -0.1241
     18  CA        29.0390   40.0030   82.2750 C.3    42  TYR42       0.1605
     19  C         29.6670   38.6130   82.1690 C.2    42  TYR42       0.2264
     20  O         30.7640   38.4470   81.6250 O.2    42  TYR42      -0.2867
     21  CB        30.1020   41.0720   81.9760 C.3    42  TYR42       0.0534
     22  CG        29.5940   42.5010   81.8530 C.ar   42  TYR42      -0.0201
     23  CD1       28.4540   42.9330   82.5380 C.ar   42  TYR42      -0.0009
     24  CD2       30.2770   43.4280   81.0690 C.ar   42  TYR42      -0.0009
     25  CE1       28.0120   44.2570   82.4470 C.ar   42  TYR42       0.0417
     26  CE2       29.8430   44.7520   80.9670 C.ar   42  TYR42       0.0417
     27  CZ        28.7110   45.1570   81.6610 C.ar   42  TYR42       0.1957
     28  OH        28.2890   46.4650   81.5680 O.3    42  TYR42      -0.2866
     29  N         18.5070   49.0950   86.4900 N.3    84  LEU84      -0.1245
     30  CA        18.6500   50.0270   85.3700 C.3    84  LEU84       0.1561
     31  C         17.5660   49.9090   84.3160 C.2    84  LEU84       0.2260
     32  O         17.3420   50.8420   83.5480 O.2    84  LEU84      -0.2867
     33  CB        19.9990   49.8330   84.6860 C.3    84  LEU84       0.0270
     34  CG        21.2460   49.9010   85.5620 C.3    84  LEU84       0.0019
     35  CD1       22.4340   49.3020   84.8170 C.3    84  LEU84       0.0001
     36  CD2       21.5190   51.3550   85.9370 C.3    84  LEU84       0.0001
     37  N         17.0360   54.8400   73.9710 N.3   134  ARG134     -0.1245
     38  CA        16.6170   53.5980   74.6090 C.3   134  ARG134      0.1563
     39  C         15.5040   53.8200   75.6260 C.2   134  ARG134      0.2260
     40  O         14.3320   53.5800   75.3360 O.2   134  ARG134     -0.2867
     41  CB        17.8250   52.9450   75.2950 C.3   134  ARG134      0.0307
     42  CG        17.6320   51.4890   75.6550 C.3   134  ARG134      0.0489
     43  CD        18.9590   50.8340   75.9420 C.3   134  ARG134      0.2205
     44  NE        19.6420   51.4920   77.0490 N.pl3 134  ARG134     -0.0865
     45  CZ        20.8700   51.1870   77.4530 C.cat 134  ARG134      0.5346
     46  NH1       21.5570   50.2280   76.8320 N.pl3 134  ARG134      0.1354
     47  NH2       21.4060   51.8330   78.4830 N.pl3 134  ARG134      0.1354
     48  N         19.6430   60.3030   85.9780 N.3   162  TYR162     -0.1241
     49  CA        20.7870   60.0630   85.1260 C.3   162  TYR162      0.1605
     50  C         20.4490   59.8790   83.6630 C.2   162  TYR162      0.2264
     51  O         19.2890   59.8290   83.2720 O.2   162  TYR162     -0.2867
     52  CB        21.5150   58.8160   85.6190 C.3   162  TYR162      0.0534
     53  CG        20.7450   57.5210   85.4030 C.ar  162  TYR162     -0.0201
     54  CD1       19.5560   57.2560   86.0970 C.ar  162  TYR162     -0.0009
     55  CD2       21.2260   56.5480   84.5300 C.ar  162  TYR162     -0.0009
     56  CE1       18.8670   56.0390   85.9240 C.ar  162  TYR162      0.0417
     57  CE2       20.5550   55.3390   84.3500 C.ar  162  TYR162      0.0417
     58  CZ        19.3840   55.0850   85.0430 C.ar  162  TYR162      0.1957
     59  OH        18.7500   53.8690   84.8600 O.3   162  TYR162     -0.2866
     60  N         22.5140   58.1790   79.7840 N.3   164  HIS164     -0.1241
     61  CA        23.5090   57.2210   79.3150 C.3   164  HIS164      0.1621
     62  C         23.9930   57.6780   77.9470 C.2   164  HIS164      0.2264
     63  O         23.2110   58.1850   77.1350 O.2   164  HIS164     -0.2867
     64  CB        22.9020   55.8190   79.2230 C.3   164  HIS164      0.0745
     65  CG        23.9070   54.7440   78.9520 C.ar  164  HIS164      0.0817
     66  ND1       24.9580   54.4760   79.8040 N.ar  164  HIS164     -0.2268
     67  CD2       24.0320   53.8800   77.9150 C.ar  164  HIS164      0.1154
     68  CE1       25.6880   53.4950   79.3030 C.ar  164  HIS164      0.1986
     69  NE2       25.1480   53.1160   78.1580 N.ar  164  HIS164     -0.2212
     70  N         29.7700   55.9590   82.0000 N.3   201  ASN201     -0.1225
     71  CA        29.9810   54.5160   81.9320 C.3   201  ASN201      0.1785
     72  C         31.4950   54.3630   82.0050 C.2   201  ASN201      0.2598
     73  O         32.1850   55.3100   82.3610 O.2   201  ASN201     -0.2718
     74  CB        29.4370   53.9070   80.6300 C.3   201  ASN201      0.1169
     75  CG        29.9260   54.6230   79.3760 C.2   201  ASN201      0.2627
     76  OD1       30.7750   55.5080   79.4360 O.2   201  ASN201     -0.2716
     77  ND2       29.3800   54.2320   78.2240 N.am  201  ASN201     -0.0877
     78  N         32.0320   53.1970   81.6650 N.am  202  SER202     -0.1938
     79  CA        33.4810   52.9990   81.7540 C.3   202  SER202      0.2055
     80  C         34.3110   53.9750   80.9330 C.2   202  SER202      0.2642
     81  O         35.2510   54.5870   81.4410 O.2   202  SER202     -0.2714
     82  CB        33.8460   51.5780   81.3410 C.3   202  SER202      0.2130
     83  OG        33.4530   50.6560   82.3360 O.3   202  SER202     -0.2179
     84  N         33.9570   54.1110   79.6610 N.am  203  ALA203     -0.1977
     85  CA        34.6570   54.9930   78.7350 C.3   203  ALA203      0.1597
     86  C         34.6140   56.4590   79.1560 C.2   203  ALA203      0.2287
     87  O         35.6460   57.1310   79.1750 O.2   203  ALA203     -0.2864
     88  CB        34.0780   54.8310   77.3300 C.3   203  ALA203      0.0319
     89  N         28.9940   54.7270   86.7730 N.3   217  ARG217     -0.1245
     90  CA        28.5470   53.3480   86.6570 C.3   217  ARG217      0.1563
     91  C         29.6510   52.5750   85.9160 C.2   217  ARG217      0.2260
     92  O         29.7790   52.6450   84.6920 O.2   217  ARG217     -0.2867
     93  CB        27.2060   53.3220   85.9180 C.3   217  ARG217      0.0307
     94  CG        26.1480   54.2160   86.5820 C.3   217  ARG217      0.0489
     95  CD        24.7500   54.0060   86.0140 C.3   217  ARG217      0.2205
     96  NE        24.6850   54.2740   84.5740 N.pl3 217  ARG217     -0.0865
     97  CZ        24.5890   55.4870   84.0230 C.cat 217  ARG217      0.5346
     98  NH1       24.5350   55.6330   82.7250 N.pl3 217  ARG217      0.1354
     99  NH2       24.5430   56.5710   84.7520 N.pl3 217  ARG217      0.1354
    100  N         31.3810   49.4390   84.4190 N.3   219  GLY219     -0.1210
    101  CA        31.0800   48.1180   83.8780 C.3   219  GLY219      0.1956
    102  C         32.2060   47.3520   83.2100 C.2   219  GLY219      0.2611
    103  O         33.0520   46.7640   83.8780 O.2   219  GLY219     -0.2717
    104  N         32.2290   47.3670   81.8790 N.am  220  ILE220     -0.1979
    105  CA        33.2380   46.6240   81.1230 C.3   220  ILE220      0.1595
    106  C         34.6900   46.7550   81.6020 C.2   220  ILE220      0.2287
    107  O         35.3810   45.7430   81.7560 O.2   220  ILE220     -0.2864
    108  CB        33.1580   46.9670   79.6000 C.3   220  ILE220      0.0276
    109  CG1       33.9380   45.9350   78.7810 C.3   220  ILE220      0.0022
    110  CG2       33.7070   48.3540   79.3430 C.3   220  ILE220      0.0022
    111  CD1       33.2480   44.5840   78.6380 C.3   220  ILE220      0.0001
    112  N         36.5750   49.5430   76.6090 N.3   227  PRO227     -0.2116
    113  CA        35.2720   49.8500   76.0080 C.3   227  PRO227      0.1372
    114  C         35.3060   49.7330   74.4870 C.2   227  PRO227      0.2244
    115  O         34.2950   49.4270   73.8540 O.2   227  PRO227     -0.2868
    116  CB        34.9870   51.2710   76.4770 C.3   227  PRO227      0.0268
    117  CG        35.7530   51.3980   77.7540 C.3   227  PRO227      0.0207
    118  CD        36.9900   50.5630   77.5860 C.3   227  PRO227      0.0892
    119  N         32.1640   42.6920   74.7810 N.3   352  TYR352     -0.1241
    120  CA        31.0840   42.5400   75.7510 C.3   352  TYR352      0.1605
    121  C         30.3370   41.2180   75.5870 C.2   352  TYR352      0.2264
    122  O         30.0590   40.5170   76.5590 O.2   352  TYR352     -0.2867
    123  CB        30.0410   43.6530   75.5990 C.3   352  TYR352      0.0534
    124  CG        30.4660   45.0520   75.9760 C.ar  352  TYR352     -0.0201
    125  CD1       31.2710   45.8110   75.1250 C.ar  352  TYR352     -0.0009
    126  CD2       29.9740   45.6600   77.1290 C.ar  352  TYR352     -0.0009
    127  CE1       31.5640   47.1370   75.4110 C.ar  352  TYR352      0.0417
    128  CE2       30.2630   46.9890   77.4230 C.ar  352  TYR352      0.0417
    129  CZ        31.0550   47.7210   76.5600 C.ar  352  TYR352      0.1957
    130  OH        31.3370   49.0410   76.8240 O.3   352  TYR352     -0.2866
@<TRIPOS>BOND
     1   115   114    2
     2    37    38    1
     3   114   113    1
     4    38    41    1
     5    38    39    1
     6   119   120    1
     7   125   127   ar
     8   125   124   ar
     9    41    42    1
    10    40    39    2
    11   127   129   ar
    12   121   120    1
    13   121   122    2
    14   123   120    1
    15   123   124    1
    16    42    43    1
    17    43    44    1
    18   124   126   ar
    19   113   116    1
    20   113   112    1
    21   116   117    1
    22   129   130    1
    23   129   128   ar
    24   112   118    1
    25    46    45    1
    26    44    45    2
    27   126   128   ar
    28    63    62    2
    29    88    85    1
    30    45    47    1
    31   118   117    1
    32    67    69   ar
    33    67    65   ar
    34    62    61    1
    35    69    68   ar
    36    77    75   am
    37   111   109    1
    38    85    86    1
    39    85    84    1
    40   109   108    1
    41    65    64    1
    42    65    66   ar
    43    86    87    2
    44    64    61    1
    45    68    66   ar
    46    61    60    1
    47   110   108    1
    48    75    76    2
    49    75    74    1
    50   108   105    1
    51    84    80   am
    52    74    71    1
    53    16    15    1
    54    80    81    2
    55    80    79    1
    56    26    24   ar
    57    26    27   ar
    58    24    22   ar
    59   105   106    1
    60   105   104    1
    61    82    79    1
    62    82    83    1
    63    28    27    1
    64   106   107    2
    65    20    19    2
    66    27    25   ar
    67    78    79    1
    68    78    72   am
    69    22    21    1
    70    22    23   ar
    71   104   102   am
    72    71    70    1
    73    71    72    1
    74    21    18    1
    75    72    73    2
    76    19    18    1
    77    18    17    1
    78    15    14    1
    79    25    23   ar
    80    98    97    1
    81    14    13    1
    82   102   103    2
    83   102   101    1
    84    51    50    2
    85    32    31    2
    86    13    12    1
    87    50    49    1
    88   101   100    1
    89    97    96    2
    90    97    99    1
    91    11    10    2
    92    31    30    1
    93    57    55   ar
    94    57    58   ar
    95    55    53   ar
    96    10     9    1
    97    96    95    1
    98    12     9    1
    99    33    30    1
   100    33    34    1
   101    92    91    2
   102    35    34    1
   103     6     5    1
   104    59    58    1
   105    58    56   ar
   106    49    52    1
   107    49    48    1
   108    30    29    1
   109    53    52    1
   110    53    54   ar
   111     9     8    1
   112    34    36    1
   113     5     7    1
   114     5     2    1
   115    91    90    1
   116    93    94    1
   117    93    90    1
   118    56    54   ar
   119    95    94    1
   120     4     3    2
   121    90    89    1
   122     3     2    1
   123     2     1    1
