@<TRIPOS>MOLECULE
tmp/1l6oA01.pdb
 83 81 0 0 0
SMALL
GASTEIGER

@<TRIPOS>ATOM
      1  N         74.6880   54.2660   60.1240 N.3    18  VAL18      -0.1245
      2  CA        75.1240   53.0590   60.6280 C.3    18  VAL18       0.1561
      3  C         76.5670   52.6090   60.0340 C.2    18  VAL18       0.2260
      4  O         76.8610   52.6820   58.9460 O.2    18  VAL18      -0.2867
      5  CB        74.0630   51.9270   60.3230 C.3    18  VAL18       0.0252
      6  CG1       74.6130   50.6820   60.7620 C.3    18  VAL18       0.0019
      7  CG2       72.7800   52.4420   60.9320 C.3    18  VAL18       0.0019
      8  N         79.6790   49.8680   59.7880 N.3    20  GLN20      -0.1245
      9  CA        80.0540   48.5140   59.6110 C.3    20  GLN20       0.1566
     10  C         81.5190   48.3760   59.9020 C.2    20  GLN20       0.2260
     11  O         82.4250   49.0240   59.3690 O.2    20  GLN20      -0.2867
     12  CB        79.9190   47.9930   58.3200 C.3    20  GLN20       0.0367
     13  CG        80.3270   46.5220   58.2470 C.3    20  GLN20       0.0905
     14  CD        79.9170   45.9400   56.9560 C.2    20  GLN20       0.2608
     15  OE1       79.3840   44.8560   56.9500 O.2    20  GLN20      -0.2717
     16  NE2       80.1640   46.6680   55.7890 N.am   20  GLN20      -0.0878
     17  N         84.3210   48.3610   57.1090 N.3    27  GLY27      -0.1225
     18  CA        83.2060   48.2810   56.1660 C.3    27  GLY27       0.1811
     19  C         82.8400   49.6290   55.5430 C.2    27  GLY27       0.2280
     20  O         82.7480   49.6390   54.4050 O.2    27  GLY27      -0.2866
     21  N         76.6390   53.4610   56.1800 N.3    30  TYR30      -0.1241
     22  CA        75.4370   53.3720   55.4640 C.3    30  TYR30       0.1605
     23  C         74.3160   54.1960   56.0790 C.2    30  TYR30       0.2264
     24  O         74.3370   54.5080   57.2840 O.2    30  TYR30      -0.2867
     25  CB        74.9190   51.8050   55.4420 C.3    30  TYR30       0.0534
     26  CG        75.9920   50.8950   55.0270 C.ar   30  TYR30      -0.0201
     27  CD1       76.9180   50.5480   55.9020 C.ar   30  TYR30      -0.0009
     28  CD2       75.9500   50.2810   53.8060 C.ar   30  TYR30      -0.0009
     29  CE1       77.9140   49.6000   55.5790 C.ar   30  TYR30       0.0417
     30  CE2       76.8610   49.2670   53.4890 C.ar   30  TYR30       0.0417
     31  CZ        77.8480   49.0010   54.3350 C.ar   30  TYR30       0.1957
     32  OH        78.7900   48.1230   53.9590 O.3    30  TYR30      -0.2866
     33  N         70.2430   51.2290   53.6600 N.3    48  GLY48      -0.1225
     34  CA        71.1210   50.2960   53.2110 C.3    48  GLY48       0.1811
     35  C         72.1310   50.8640   52.1830 C.2    48  GLY48       0.2280
     36  O         73.1250   50.3000   51.9610 O.2    48  GLY48      -0.2866
     37  N         72.3170   49.8260   47.6240 N.3    86  LEU86      -0.1231
     38  CA        72.2290   48.4180   47.9690 C.3    86  LEU86       0.1693
     39  C         72.0190   47.4870   46.8280 C.2    86  LEU86       0.2592
     40  O         71.1220   47.6510   46.0420 O.2    86  LEU86      -0.2718
     41  CB        70.8640   48.3630   48.7850 C.3    86  LEU86       0.0284
     42  CG        70.6270   47.0150   49.4370 C.3    86  LEU86       0.0019
     43  CD1       71.7500   47.0820   50.5880 C.3    86  LEU86       0.0001
     44  CD2       69.0510   47.2380   49.9290 C.3    86  LEU86       0.0001
     45  N         72.7670   46.4870   46.8590 N.am   87  GLU87      -0.1966
     46  CA        72.4280   45.2490   46.1190 C.3    87  GLU87       0.1733
     47  C         71.5660   44.1310   46.7830 C.2    87  GLU87       0.2616
     48  O         71.2820   44.2010   47.9530 O.2    87  GLU87      -0.2715
     49  CB        73.6800   44.3960   46.0400 C.3    87  GLU87       0.0429
     50  CG        74.8890   45.1930   45.5580 C.3    87  GLU87       0.1163
     51  CD        74.8760   45.4400   44.0450 C.2    87  GLU87       0.3649
     52  OE1       74.9990   44.4400   43.3280 O.co2  87  GLU87      -0.2457
     53  OE2       74.7730   46.6070   43.5830 O.co2  87  GLU87      -0.2457
     54  N         71.4150   43.0410   46.0090 N.am   88  HIS88      -0.1959
     55  CA        70.8030   41.7760   46.3970 C.3    88  HIS88       0.1787
     56  C         71.4060   40.3860   46.3290 C.2    88  HIS88       0.2620
     57  O         72.1610   39.9150   47.0790 O.2    88  HIS88      -0.2715
     58  CB        69.7410   41.6490   45.3430 C.3    88  HIS88       0.0785
     59  CG        68.5010   40.9510   45.7930 C.ar   88  HIS88       0.0821
     60  ND1       68.4070   39.6070   46.1340 N.ar   88  HIS88      -0.2267
     61  CD2       67.2830   41.4640   45.9460 C.ar   88  HIS88       0.1154
     62  CE1       67.1760   39.3370   46.4790 C.ar   88  HIS88       0.1986
     63  NE2       66.4720   40.4470   46.3700 N.ar   88  HIS88      -0.2212
     64  N         70.7710   39.7120   45.4040 N.am   89  HIS89      -0.1959
     65  CA        70.8800   38.3430   45.0830 C.3    89  HIS89       0.1787
     66  C         71.4950   37.7150   46.2280 C.2    89  HIS89       0.2620
     67  O         72.6720   37.8300   46.3930 O.2    89  HIS89      -0.2715
     68  CB        71.5570   38.0210   43.7150 C.3    89  HIS89       0.0785
     69  CG        70.6520   37.2150   42.7630 C.ar   89  HIS89       0.0821
     70  ND1       69.3950   37.6340   42.3210 N.ar   89  HIS89      -0.2267
     71  CD2       70.8490   36.0010   42.1780 C.ar   89  HIS89       0.1154
     72  CE1       68.8710   36.7200   41.5110 C.ar   89  HIS89       0.1986
     73  NE2       69.7370   35.7250   41.4000 N.ar   89  HIS89      -0.2212
     74  N         70.6310   37.1010   47.0560 N.am   90  HIS90      -0.1973
     75  CA        70.9930   36.1840   48.1750 C.3    90  HIS90       0.1656
     76  C         72.3580   36.5700   48.8110 C.2    90  HIS90       0.2291
     77  O         72.8600   37.7050   48.8270 O.2    90  HIS90      -0.2864
     78  CB        71.0050   34.6990   47.6420 C.3    90  HIS90       0.0771
     79  CG        71.7330   34.5280   46.3160 C.ar   90  HIS90       0.0820
     80  ND1       73.0370   34.9590   46.1280 N.ar   90  HIS90      -0.2267
     81  CD2       71.3270   34.0640   45.1050 C.ar   90  HIS90       0.1154
     82  CE1       73.4130   34.7530   44.8780 C.ar   90  HIS90       0.1986
     83  NE2       72.3990   34.2000   44.2370 N.ar   90  HIS90      -0.2212
@<TRIPOS>BOND
     1    73    72   ar
     2    73    71   ar
     3    72    70   ar
     4    71    69   ar
     5    70    69   ar
     6    69    68    1
     7    52    51   ar
     8    53    51   ar
     9    68    65    1
    10    51    50    1
    11    83    82   ar
    12    83    81   ar
    13    82    80   ar
    14    65    64    1
    15    65    66    1
    16    81    79   ar
    17    58    59    1
    18    58    55    1
    19    64    56   am
    20    50    49    1
    21    59    61   ar
    22    59    60   ar
    23    61    63   ar
    24    54    55    1
    25    54    47   am
    26    49    46    1
    27    40    39    2
    28    46    47    1
    29    46    45    1
    30    80    79   ar
    31    60    62   ar
    32    66    67    2
    33    66    74   am
    34    79    78    1
    35    56    55    1
    36    56    57    2
    37    63    62   ar
    38    47    48    2
    39    39    45   am
    40    39    38    1
    41    74    75    1
    42    37    38    1
    43    78    75    1
    44    38    41    1
    45    75    76    1
    46    41    42    1
    47    76    77    2
    48    42    44    1
    49    42    43    1
    50    36    35    2
    51    35    34    1
    52    34    33    1
    53    30    28   ar
    54    30    31   ar
    55    28    26   ar
    56    32    31    1
    57    31    29   ar
    58    20    19    2
    59    26    25    1
    60    26    27   ar
    61    25    22    1
    62    22    23    1
    63    22    21    1
    64    19    18    1
    65    29    27   ar
    66    16    14   am
    67    23    24    2
    68    18    17    1
    69    15    14    2
    70    14    13    1
    71    13    12    1
    72    12     9    1
    73     4     3    2
    74    11    10    2
    75     9     8    1
    76     9    10    1
    77     3     2    1
    78     1     2    1
    79     5     2    1
    80     5     6    1
    81     5     7    1
