@<TRIPOS>MOLECULE
tmp/1l6oA00.pdb
 158 155 0 0 0
SMALL
GASTEIGER

@<TRIPOS>ATOM
      1  N         67.9950   70.0030   57.7890 N.3    12  PHE12      -0.1227
      2  CA        68.6650   68.7540   58.2490 C.3    12  PHE12       0.1736
      3  C         68.4990   67.6870   57.2290 C.2    12  PHE12       0.2595
      4  O         67.4970   67.7370   56.4530 O.2    12  PHE12      -0.2718
      5  CB        68.2820   68.2720   59.6830 C.3    12  PHE12       0.0547
      6  CG        66.9090   67.8690   59.8080 C.ar   12  PHE12      -0.0202
      7  CD1       66.4640   66.5990   59.5540 C.ar   12  PHE12      -0.0042
      8  CD2       65.9710   68.8870   60.1890 C.ar   12  PHE12      -0.0042
      9  CE1       65.1570   66.2550   59.6710 C.ar   12  PHE12      -0.0003
     10  CE2       64.6200   68.5920   60.4820 C.ar   12  PHE12      -0.0003
     11  CZ        64.1220   67.2110   60.1460 C.ar   12  PHE12      -0.0000
     12  N         69.3820   66.6100   57.2270 N.am   13  LEU13      -0.1966
     13  CA        69.1890   65.5990   56.1890 C.3    13  LEU13       0.1728
     14  C         68.1750   64.6750   56.4680 C.2    13  LEU13       0.2617
     15  O         67.6820   64.2940   55.5340 O.2    13  LEU13      -0.2715
     16  CB        70.4070   64.7790   55.7810 C.3    13  LEU13       0.0311
     17  CG        71.7020   65.4710   55.5110 C.3    13  LEU13       0.0022
     18  CD1       72.8320   64.4180   55.0440 C.3    13  LEU13       0.0001
     19  CD2       71.3610   66.5140   54.4050 C.3    13  LEU13       0.0001
     20  N         67.9500   64.3450   57.7670 N.am   14  GLY14      -0.1940
     21  CA        66.9420   63.2490   58.1230 C.3    14  GLY14       0.2014
     22  C         67.3880   61.7320   57.9400 C.2    14  GLY14       0.2639
     23  O         66.5620   60.9290   57.4330 O.2    14  GLY14      -0.2714
     24  N         68.7040   61.5110   58.1700 N.am   15  ILE15      -0.1963
     25  CA        69.2690   60.2430   58.0150 C.3    15  ILE15       0.1727
     26  C         69.9100   59.6240   59.2210 C.2    15  ILE15       0.2617
     27  O         70.6400   60.2040   59.8430 O.2    15  ILE15      -0.2715
     28  CB        69.9780   60.0400   56.7410 C.3    15  ILE15       0.0290
     29  CG1       71.4520   60.4600   56.7880 C.3    15  ILE15       0.0022
     30  CG2       69.3580   60.6440   55.6640 C.3    15  ILE15       0.0023
     31  CD1       71.9910   60.9620   55.6230 C.3    15  ILE15       0.0001
     32  N         69.6810   58.3710   59.5040 N.am   16  SER16      -0.1936
     33  CA        70.5790   57.8480   60.3970 C.3    16  SER16       0.2055
     34  C         71.8850   57.1840   59.6870 C.2    16  SER16       0.2643
     35  O         71.7490   56.6830   58.6520 O.2    16  SER16      -0.2714
     36  CB        69.8780   56.9410   61.3360 C.3    16  SER16       0.2130
     37  OG        69.3420   55.9590   60.4390 O.3    16  SER16      -0.2179
     38  N         73.0120   57.1220   60.3920 N.am   17  ILE17      -0.1963
     39  CA        74.2050   56.5870   59.9480 C.3    17  ILE17       0.1727
     40  C         74.6750   55.4040   60.7960 C.2    17  ILE17       0.2616
     41  O         74.9680   55.4990   61.8820 O.2    17  ILE17      -0.2715
     42  CB        75.3670   57.6230   59.8450 C.3    17  ILE17       0.0290
     43  CG1       74.9270   58.8840   59.0790 C.3    17  ILE17       0.0022
     44  CG2       76.6150   57.0620   59.3530 C.3    17  ILE17       0.0023
     45  CD1       74.6940   58.6820   57.6280 C.3    17  ILE17       0.0001
     46  N         74.6880   54.2660   60.1240 N.am   18  VAL18      -0.1963
     47  CA        75.1240   53.0590   60.6280 C.3    18  VAL18       0.1727
     48  C         76.5670   52.6090   60.0340 C.2    18  VAL18       0.2617
     49  O         76.8610   52.6820   58.9460 O.2    18  VAL18      -0.2715
     50  CB        74.0630   51.9270   60.3230 C.3    18  VAL18       0.0290
     51  CG1       74.6130   50.6820   60.7620 C.3    18  VAL18       0.0023
     52  CG2       72.7800   52.4420   60.9320 C.3    18  VAL18       0.0023
     53  N         77.4570   52.3000   60.9670 N.am   19  GLY19      -0.1940
     54  CA        78.8430   51.8420   60.7640 C.3    19  GLY19       0.2014
     55  C         79.1510   50.3220   60.8440 C.2    19  GLY19       0.2639
     56  O         78.6650   49.5790   61.6490 O.2    19  GLY19      -0.2714
     57  N         79.6790   49.8680   59.7880 N.am   20  GLN20      -0.1963
     58  CA        80.0540   48.5140   59.6110 C.3    20  GLN20       0.1733
     59  C         81.5190   48.3760   59.9020 C.2    20  GLN20       0.2617
     60  O         82.4250   49.0240   59.3690 O.2    20  GLN20      -0.2715
     61  CB        79.9190   47.9930   58.3200 C.3    20  GLN20       0.0408
     62  CG        80.3270   46.5220   58.2470 C.3    20  GLN20       0.0908
     63  CD        79.9170   45.9400   56.9560 C.2    20  GLN20       0.2608
     64  OE1       79.3840   44.8560   56.9500 O.2    20  GLN20      -0.2717
     65  NE2       80.1640   46.6680   55.7890 N.am   20  GLN20      -0.0878
     66  N         81.7010   47.4440   60.8210 N.am   21  SER21      -0.1936
     67  CA        82.9960   47.2350   61.2950 C.3    21  SER21       0.2055
     68  C         82.9670   45.8640   61.8450 C.2    21  SER21       0.2639
     69  O         82.0190   45.2440   62.4800 O.2    21  SER21      -0.2714
     70  CB        83.4500   48.1960   62.3250 C.3    21  SER21       0.2130
     71  OG        84.8350   48.0620   62.5290 O.3    21  SER21      -0.2179
     72  N         84.1440   45.4110   61.5700 N.am   22  ASN22      -0.2025
     73  CA        84.3250   44.0420   61.6660 C.3    22  ASN22       0.1374
     74  C         85.6080   43.8480   62.2990 C.3    22  ASN22       0.2041
     75  O         86.2410   44.8340   62.8440 O.3    22  ASN22      -0.2185
     76  CB        84.3810   43.5680   60.2340 C.3    22  ASN22       0.1128
     77  CG        84.5740   42.1550   60.1340 C.2    22  ASN22       0.2626
     78  OD1       83.7760   41.3540   60.6190 O.2    22  ASN22      -0.2716
     79  ND2       85.6730   41.7890   59.5230 N.am   22  ASN22      -0.0877
     80  N         80.0050   53.3160   55.8870 N.3    29  ILE29      -0.1231
     81  CA        79.0020   53.8100   56.5780 C.3    29  ILE29       0.1692
     82  C         77.8210   53.7610   55.6770 C.2    29  ILE29       0.2592
     83  O         78.0190   53.9350   54.5380 O.2    29  ILE29      -0.2718
     84  CB        79.3290   55.3100   57.2060 C.3    29  ILE29       0.0266
     85  CG1       79.8340   56.1360   56.1850 C.3    29  ILE29       0.0019
     86  CG2       80.3740   55.2650   58.2300 C.3    29  ILE29       0.0020
     87  CD1       79.6830   57.5990   56.5270 C.3    29  ILE29       0.0001
     88  N         76.6390   53.4610   56.1800 N.am   30  TYR30      -0.1976
     89  CA        75.4370   53.3720   55.4640 C.3    30  TYR30       0.1639
     90  C         74.3160   54.1960   56.0790 C.2    30  TYR30       0.2290
     91  O         74.3370   54.5080   57.2840 O.2    30  TYR30      -0.2864
     92  CB        74.9190   51.8050   55.4420 C.3    30  TYR30       0.0560
     93  CG        75.9920   50.8950   55.0270 C.ar   30  TYR30      -0.0198
     94  CD1       76.9180   50.5480   55.9020 C.ar   30  TYR30      -0.0009
     95  CD2       75.9500   50.2810   53.8060 C.ar   30  TYR30      -0.0009
     96  CE1       77.9140   49.6000   55.5790 C.ar   30  TYR30       0.0417
     97  CE2       76.8610   49.2670   53.4890 C.ar   30  TYR30       0.0417
     98  CZ        77.8480   49.0010   54.3350 C.ar   30  TYR30       0.1957
     99  OH        78.7900   48.1230   53.9590 O.3    30  TYR30      -0.2866
    100  N         85.2240   54.6630   59.9600 N.3    62  ASN62      -0.1225
    101  CA        83.9160   55.0780   60.1440 C.3    62  ASN62       0.1784
    102  C         83.9230   56.3720   60.9520 C.2    62  ASN62       0.2593
    103  O         83.1230   57.1910   60.5800 O.2    62  ASN62      -0.2718
    104  CB        83.0200   53.9990   60.7440 C.3    62  ASN62       0.1169
    105  CG        83.0320   52.7240   59.9250 C.2    62  ASN62       0.2627
    106  OD1       83.4250   52.7880   58.7750 O.2    62  ASN62      -0.2716
    107  ND2       82.6150   51.5560   60.4770 N.am   62  ASN62      -0.0877
    108  N         84.7090   56.5550   62.0340 N.am   63  ASP63      -0.2027
    109  CA        84.4300   57.6590   63.0050 C.3    63  ASP63       0.1395
    110  C         84.8820   59.0810   62.3410 C.3    63  ASP63       0.2041
    111  O         84.2610   60.2060   62.5020 O.3    63  ASP63      -0.2185
    112  CB        85.2450   57.3750   64.2800 C.3    63  ASP63       0.1383
    113  CG        84.6060   56.3460   65.2040 C.2    63  ASP63       0.3667
    114  OD1       83.6650   55.6740   64.8590 O.co2  63  ASP63      -0.2456
    115  OD2       84.9990   56.2080   66.4220 O.co2  63  ASP63      -0.2456
    116  N         82.2880   60.1930   59.7400 N.3    66  VAL66      -0.1245
    117  CA        81.0990   60.8460   60.2670 C.3    66  VAL66       0.1561
    118  C         81.5040   62.1520   60.8220 C.2    66  VAL66       0.2260
    119  O         80.7110   63.0380   60.8460 O.2    66  VAL66      -0.2867
    120  CB        80.5950   59.9040   61.4460 C.3    66  VAL66       0.0252
    121  CG1       79.5850   60.6160   62.4720 C.3    66  VAL66       0.0019
    122  CG2       79.9010   58.7510   60.6920 C.3    66  VAL66       0.0019
    123  N         81.0930   64.3820   57.9350 N.3    69  LEU69      -0.1231
    124  CA        79.6450   64.5840   57.5880 C.3    69  LEU69       0.1693
    125  C         79.0670   65.6320   58.6660 C.2    69  LEU69       0.2591
    126  O         78.4820   66.5820   58.3110 O.2    69  LEU69      -0.2718
    127  CB        78.8970   63.2190   57.5710 C.3    69  LEU69       0.0284
    128  CG        77.3730   63.1000   57.2170 C.3    69  LEU69       0.0019
    129  CD1       76.9850   63.6470   55.9030 C.3    69  LEU69       0.0001
    130  CD2       76.9740   61.4940   57.1900 C.3    69  LEU69       0.0001
    131  N         79.2580   65.4320   59.8940 N.am   70  ARG70      -0.1980
    132  CA        78.6550   66.3140   60.8950 C.3    70  ARG70       0.1597
    133  C         79.1490   67.7410   60.5870 C.2    70  ARG70       0.2287
    134  O         78.4350   68.7680   60.6070 O.2    70  ARG70      -0.2864
    135  CB        79.0600   65.9160   62.3240 C.3    70  ARG70       0.0334
    136  CG        78.1210   64.5980   62.8250 C.3    70  ARG70       0.0492
    137  CD        78.3920   64.0350   64.2060 C.3    70  ARG70       0.2205
    138  NE        77.8670   64.9970   65.1480 N.pl3  70  ARG70      -0.0865
    139  CZ        77.5360   64.6320   66.3880 C.cat  70  ARG70       0.5346
    140  NH1       77.6590   63.3870   66.7150 N.pl3  70  ARG70       0.1354
    141  NH2       77.0040   65.4470   67.2340 N.pl3  70  ARG70       0.1354
    142  N         77.1280   69.2790   57.5130 N.3    73  VAL73      -0.1231
    143  CA        75.7680   69.6170   57.5930 C.3    73  VAL73       0.1692
    144  C         75.6850   70.7530   58.5610 C.2    73  VAL73       0.2592
    145  O         74.7170   71.4680   58.6110 O.2    73  VAL73      -0.2718
    146  CB        74.9920   68.4380   58.1510 C.3    73  VAL73       0.0266
    147  CG1       73.6340   68.8860   58.5270 C.3    73  VAL73       0.0020
    148  CG2       74.7450   67.5290   57.0650 C.3    73  VAL73       0.0020
    149  N         76.7680   70.9930   59.2750 N.am   74  HIS74      -0.1976
    150  CA        76.7310   72.0640   60.2430 C.3    74  HIS74       0.1656
    151  C         77.0570   73.3820   59.6090 C.2    74  HIS74       0.2291
    152  O         77.2480   74.3160   60.2550 O.2    74  HIS74      -0.2864
    153  CB        77.4870   71.8280   61.6040 C.3    74  HIS74       0.0771
    154  CG        76.5980   71.1700   62.6640 C.ar   74  HIS74       0.0820
    155  ND1       76.1320   69.8770   62.5130 N.ar   74  HIS74      -0.2267
    156  CD2       75.9980   71.6180   63.8030 C.ar   74  HIS74       0.1154
    157  CE1       75.3470   69.5300   63.5190 C.ar   74  HIS74       0.1986
    158  NE2       75.2380   70.5730   64.3170 N.ar   74  HIS74      -0.2212
@<TRIPOS>BOND
     1    97    95   ar
     2    97    98   ar
     3    95    93   ar
     4    99    98    1
     5    98    96   ar
     6    19    17    1
     7    83    82    2
     8    93    92    1
     9    93    94   ar
    10    18    17    1
    11    92    89    1
    12    89    90    1
    13    89    88    1
    14    17    16    1
    15    15    14    2
    16    96    94   ar
    17    31    29    1
    18    30    28    1
    19    82    88   am
    20    82    81    1
    21    16    13    1
    22    65    63   am
    23    80    81    1
    24   129   128    1
    25    90    91    2
    26    85    87    1
    27    85    84    1
    28    13    14    1
    29    13    12    1
    30     4     3    2
    31    14    20   am
    32    81    84    1
    33    28    29    1
    34    28    25    1
    35    64    63    2
    36    63    62    1
    37   148   146    1
    38   130   128    1
    39    84    86    1
    40   128   127    1
    41    12     3   am
    42     3     2    1
    43    23    22    2
    44   142   143    1
    45   127   124    1
    46   124   123    1
    47   124   125    1
    48   143   146    1
    49   143   144    1
    50    45    43    1
    51    20    21    1
    52     1     2    1
    53    22    21    1
    54    22    24   am
    55    25    24    1
    56    25    26    1
    57   146   147    1
    58    62    61    1
    59     2     5    1
    60   126   125    2
    61    61    58    1
    62   144   145    2
    63   144   149   am
    64    35    34    2
    65   125   131   am
    66   106   105    2
    67    49    48    2
    68    43    42    1
    69    26    32   am
    70    26    27    2
    71   149   150    1
    72    44    42    1
    73    60    59    2
    74    32    33    1
    75    79    77   am
    76     7     9   ar
    77     7     6   ar
    78   151   150    1
    79   151   152    2
    80    58    57    1
    81    58    59    1
    82     9    11   ar
    83     5     6    1
    84    34    38   am
    85    34    33    1
    86   116   117    1
    87    57    55   am
    88     6     8   ar
    89    42    39    1
    90   131   132    1
    91    59    66   am
    92   105   107   am
    93   105   104    1
    94    39    38    1
    95    39    40    1
    96   100   101    1
    97    48    47    1
    98    48    53   am
    99    46    47    1
   100    46    40   am
   101    77    76    1
   102    77    78    2
   103   101   104    1
   104   101   102    1
   105    11    10   ar
   106     8    10   ar
   107    76    73    1
   108   150   153    1
   109   117   118    1
   110   117   120    1
   111    50    47    1
   112    50    51    1
   113    50    52    1
   114    33    36    1
   115    37    36    1
   116   103   102    2
   117   133   134    2
   118   133   132    1
   119   122   120    1
   120    54    55    1
   121    54    53    1
   122    40    41    2
   123    66    67    1
   124   118   119    2
   125    55    56    2
   126   132   135    1
   127   102   108   am
   128    67    68    1
   129    67    70    1
   130   120   121    1
   131    72    73    1
   132    72    68   am
   133   153   154    1
   134    73    74    1
   135    68    69    2
   136   108   109    1
   137    74    75    1
   138   135   136    1
   139    70    71    1
   140   110   111    1
   141   110   109    1
   142   155   154   ar
   143   155   157   ar
   144   154   156   ar
   145   136   137    1
   146   109   112    1
   147   157   158   ar
   148   156   158   ar
   149   137   138    1
   150   112   113    1
   151   114   113   ar
   152   138   139    2
   153   113   115   ar
   154   139   140    1
   155   139   141    1
