@<TRIPOS>MOLECULE
tmp/1l6zA01.pdb
 82 77 0 0 0
SMALL
GASTEIGER

@<TRIPOS>ATOM
      1  N          4.3000   30.7610   27.5970 N.3     7  VAL7       -0.1245
      2  CA         5.0300   31.2290   26.4510 C.3     7  VAL7        0.1561
      3  C          4.1710   31.0980   25.2120 C.2     7  VAL7        0.2260
      4  O          3.6970   30.0150   24.8750 O.2     7  VAL7       -0.2867
      5  CB         6.3710   30.5040   26.2620 C.3     7  VAL7        0.0252
      6  CG1        6.4140   29.7880   24.9200 C.3     7  VAL7        0.0019
      7  CG2        7.4910   31.5290   26.3400 C.3     7  VAL7        0.0019
      8  N          1.6150   28.3940   25.2840 N.3    18  LEU18      -0.1245
      9  CA         1.9070   27.2390   26.1050 C.3    18  LEU18       0.1561
     10  C          1.9200   27.6050   27.5780 C.2    18  LEU18       0.2260
     11  O          2.4200   28.6670   27.9690 O.2    18  LEU18      -0.2867
     12  CB         3.2560   26.6390   25.7280 C.3    18  LEU18       0.0270
     13  CG         3.6640   25.4620   26.6150 C.3    18  LEU18       0.0019
     14  CD1        2.5870   24.3770   26.5670 C.3    18  LEU18       0.0001
     15  CD2        5.0040   24.9230   26.1500 C.3    18  LEU18       0.0001
     16  N          3.5760   26.7430   30.5380 N.3    20  LEU20      -0.1231
     17  CA         4.7560   26.0920   31.0660 C.3    20  LEU20       0.1693
     18  C          4.6640   25.7410   32.5320 C.2    20  LEU20       0.2592
     19  O          4.2010   26.5310   33.3580 O.2    20  LEU20      -0.2718
     20  CB         5.9940   26.9490   30.8400 C.3    20  LEU20       0.0284
     21  CG         7.2850   26.1350   30.7600 C.3    20  LEU20       0.0019
     22  CD1        7.0460   24.8600   29.9580 C.3    20  LEU20       0.0001
     23  CD2        8.3700   26.9720   30.1100 C.3    20  LEU20       0.0001
     24  N          5.1430   24.5450   32.8430 N.am   21  VAL21      -0.1966
     25  CA         5.1310   24.0320   34.1970 C.3    21  VAL21       0.1727
     26  C          6.5500   23.6520   34.6090 C.2    21  VAL21       0.2616
     27  O          7.0190   22.5630   34.2730 O.2    21  VAL21      -0.2715
     28  CB         4.2150   22.8070   34.2620 C.3    21  VAL21       0.0290
     29  CG1        4.1430   22.2770   35.6720 C.3    21  VAL21       0.0023
     30  CG2        2.8370   23.1940   33.7460 C.3    21  VAL21       0.0023
     31  N          7.2480   24.5480   35.3150 N.am   22  HIS22      -0.1959
     32  CA         8.6150   24.2460   35.7540 C.3    22  HIS22       0.1787
     33  C          8.5810   23.3890   36.9870 C.2    22  HIS22       0.2620
     34  O          7.6450   23.4550   37.7800 O.2    22  HIS22      -0.2715
     35  CB         9.4290   25.4700   36.1690 C.3    22  HIS22       0.0785
     36  CG         9.3370   26.6380   35.2580 C.ar   22  HIS22       0.0821
     37  ND1        9.3380   26.5300   33.8830 N.ar   22  HIS22      -0.2267
     38  CD2        9.2970   27.9730   35.5210 C.ar   22  HIS22       0.1154
     39  CE1        9.3030   27.7490   33.3430 C.ar   22  HIS22       0.1986
     40  NE2        9.2780   28.6230   34.3320 N.ar   22  HIS22      -0.2212
     41  N          9.6630   22.6440   37.1680 N.am   23  ASN23      -0.1972
     42  CA         9.8320   21.7560   38.3010 C.3    23  ASN23       0.1688
     43  C          8.5010   21.3540   38.9070 C.2    23  ASN23       0.2292
     44  O          8.0310   21.9080   39.8900 O.2    23  ASN23      -0.2864
     45  CB        10.7620   22.4040   39.3230 C.3    23  ASN23       0.1181
     46  CG        12.2290   22.1420   39.0040 C.2    23  ASN23       0.2629
     47  OD1       12.8040   22.7580   38.1020 O.2    23  ASN23      -0.2716
     48  ND2       12.8370   21.2130   39.7350 N.am   23  ASN23      -0.0877
     49  N          0.5550   17.8530   28.7830 N.3    68  TYR68      -0.1241
     50  CA         1.7690   17.0780   28.5390 C.3    68  TYR68       0.1605
     51  C          2.2150   16.2870   29.7660 C.2    68  TYR68       0.2264
     52  O          1.7130   16.4880   30.8730 O.2    68  TYR68      -0.2867
     53  CB         2.9090   18.0040   28.1070 C.3    68  TYR68       0.0534
     54  CG         2.7980   18.5680   26.7050 C.ar   68  TYR68      -0.0201
     55  CD1        3.8930   18.5530   25.8490 C.ar   68  TYR68      -0.0009
     56  CD2        1.6110   19.1360   26.2400 C.ar   68  TYR68      -0.0009
     57  CE1        3.8150   19.0860   24.5640 C.ar   68  TYR68       0.0417
     58  CE2        1.5260   19.6720   24.9520 C.ar   68  TYR68       0.0417
     59  CZ         2.6350   19.6420   24.1190 C.ar   68  TYR68       0.1957
     60  OH         2.5680   20.1470   22.8370 O.3    68  TYR68      -0.2866
     61  N          5.0740   16.5040   31.1590 N.3    70  ASN70      -0.1240
     62  CA         5.7900   17.3890   32.0660 C.3    70  ASN70       0.1653
     63  C          4.6930   18.1930   32.7300 C.2    70  ASN70       0.2266
     64  O          4.9460   19.0640   33.5570 O.2    70  ASN70      -0.2867
     65  CB         6.7990   18.3030   31.3280 C.3    70  ASN70       0.1155
     66  CG         6.2990   18.8120   29.9680 C.2    70  ASN70       0.2627
     67  OD1        5.7250   18.0700   29.1680 O.2    70  ASN70      -0.2716
     68  ND2        6.5330   20.1060   29.7460 N.am   70  ASN70      -0.0877
     69  N          2.0470   20.0890   31.0850 N.3    72  SER72      -0.1217
     70  CA         1.8660   21.4350   30.5610 C.3    72  SER72       0.1889
     71  C          0.7800   21.5210   29.5050 C.2    72  SER72       0.2288
     72  O          0.3530   20.5060   28.9430 O.2    72  SER72      -0.2866
     73  CB         3.1920   21.9600   30.0160 C.3    72  SER72       0.2089
     74  OG         4.2050   21.8460   31.0060 O.3    72  SER72      -0.2183
     75  N         -0.5910   23.4610   25.9360 N.3    74  LEU74      -0.1245
     76  CA        -0.4510   24.3730   24.8250 C.3    74  LEU74       0.1561
     77  C         -1.8730   24.7990   24.5770 C.2    74  LEU74       0.2260
     78  O         -2.8090   24.0710   24.8890 O.2    74  LEU74      -0.2867
     79  CB         0.0730   23.6880   23.5670 C.3    74  LEU74       0.0270
     80  CG        -0.4310   24.4360   22.3220 C.3    74  LEU74       0.0019
     81  CD1        0.5670   25.5180   21.9150 C.3    74  LEU74       0.0001
     82  CD2       -0.6760   23.4600   21.2000 C.3    74  LEU74       0.0001
@<TRIPOS>BOND
     1    82    80    1
     2    81    80    1
     3    80    79    1
     4    60    59    1
     5    79    76    1
     6    59    57   ar
     7    59    58   ar
     8    57    55   ar
     9    77    76    1
    10    77    78    2
    11    76    75    1
    12     4     3    2
    13     6     5    1
    14    58    56   ar
    15     3     2    1
    16     8     9    1
    17    12     9    1
    18    12    13    1
    19    55    54   ar
    20     9    10    1
    21    15    13    1
    22    56    54   ar
    23     5     7    1
    24     5     2    1
    25     2     1    1
    26    14    13    1
    27    54    53    1
    28    10    11    2
    29    53    50    1
    30    50    49    1
    31    50    51    1
    32    72    71    2
    33    67    66    2
    34    71    70    1
    35    68    66   am
    36    51    52    2
    37    22    21    1
    38    66    65    1
    39    73    70    1
    40    73    74    1
    41    23    21    1
    42    16    17    1
    43    70    69    1
    44    21    20    1
    45    20    17    1
    46    17    18    1
    47    61    62    1
    48    65    62    1
    49    62    63    1
    50    18    24   am
    51    18    19    2
    52    63    64    2
    53    24    25    1
    54    39    37   ar
    55    39    40   ar
    56    30    28    1
    57    37    36   ar
    58    25    28    1
    59    25    26    1
    60    28    29    1
    61    27    26    2
    62    40    38   ar
    63    26    31   am
    64    36    38   ar
    65    36    35    1
    66    31    32    1
    67    32    35    1
    68    32    33    1
    69    33    41   am
    70    33    34    2
    71    41    42    1
    72    47    46    2
    73    42    43    1
    74    42    45    1
    75    43    44    2
    76    46    45    1
    77    46    48   am
