@<TRIPOS>MOLECULE
tmp/1l7pB00.pdb
 129 119 0 0 0
SMALL
GASTEIGER

@<TRIPOS>ATOM
      1  N         61.6490   16.2000   43.8810 N.3    10  ASN10      -0.1225
      2  CA        61.0460   15.3650   44.9060 C.3    10  ASN10       0.1785
      3  C         60.1950   16.4220   45.6150 C.2    10  ASN10       0.2597
      4  O         60.3240   17.6150   45.3240 O.2    10  ASN10      -0.2718
      5  CB        62.0940   14.7430   45.8590 C.3    10  ASN10       0.1169
      6  CG        62.8550   15.7740   46.6610 C.2    10  ASN10       0.2627
      7  OD1       63.6470   16.5190   46.0570 O.2    10  ASN10      -0.2716
      8  ND2       62.6630   15.8360   47.9000 N.am   10  ASN10      -0.0877
      9  N         59.3190   16.0070   46.5190 N.am   11  PHE11      -0.1962
     10  CA        58.4460   16.9570   47.2080 C.3    11  PHE11       0.1771
     11  C         58.9900   17.4210   48.5540 C.2    11  PHE11       0.2619
     12  O         59.4740   18.5450   48.6950 O.2    11  PHE11      -0.2715
     13  CB        57.0690   16.3180   47.4150 C.3    11  PHE11       0.0574
     14  CG        56.0800   17.2050   48.1100 C.ar   11  PHE11      -0.0200
     15  CD1       55.5800   18.3440   47.4790 C.ar   11  PHE11      -0.0042
     16  CD2       55.6320   16.8960   49.3890 C.ar   11  PHE11      -0.0042
     17  CE1       54.6450   19.1590   48.1150 C.ar   11  PHE11      -0.0003
     18  CE2       54.6960   17.7040   50.0370 C.ar   11  PHE11      -0.0003
     19  CZ        54.2010   18.8380   49.3990 C.ar   11  PHE11      -0.0000
     20  N         58.9010   16.5370   49.5390 N.am   12  ASP12      -0.1971
     21  CA        59.3430   16.8300   50.8930 C.3    12  ASP12       0.1709
     22  C         60.7780   17.3300   51.0410 C.2    12  ASP12       0.2293
     23  O         61.7330   16.6650   50.6480 O.2    12  ASP12      -0.2864
     24  CB        59.0990   15.6010   51.7730 C.3    12  ASP12       0.1436
     25  CG        57.6180   15.3340   51.9830 C.2    12  ASP12       0.3671
     26  OD1       57.1140   14.2760   51.5390 O.co2  12  ASP12      -0.2456
     27  OD2       56.9470   16.1970   52.5840 O.co2  12  ASP12      -0.2456
     28  N         58.6080   17.9690   56.1490 N.3    19  GLU19      -0.1245
     29  CA        58.4950   16.5590   55.8150 C.3    19  GLU19       0.1567
     30  C         57.0550   16.2550   56.1780 C.2    19  GLU19       0.2260
     31  O         56.7020   16.2450   57.3570 O.2    19  GLU19      -0.2867
     32  CB        59.4260   15.7090   56.6790 C.3    19  GLU19       0.0388
     33  CG        60.9070   15.8230   56.3580 C.3    19  GLU19       0.1160
     34  CD        61.2580   15.2760   54.9860 C.2    19  GLU19       0.3649
     35  OE1       60.5160   14.4100   54.4750 O.co2  19  GLU19      -0.2457
     36  OE2       62.2850   15.7010   54.4210 O.co2  19  GLU19      -0.2457
     37  N         55.3440   13.5940   56.3480 N.3    21  ILE21      -0.1245
     38  CA        55.2840   12.4870   57.2870 C.3    21  ILE21       0.1561
     39  C         55.5560   12.9210   58.7350 C.2    21  ILE21       0.2260
     40  O         55.0090   12.3350   59.6710 O.2    21  ILE21      -0.2867
     41  CB        56.2770   11.3720   56.8500 C.3    21  ILE21       0.0252
     42  CG1       56.2640   10.2160   57.8540 C.3    21  ILE21       0.0019
     43  CG2       57.6680   11.9580   56.6660 C.3    21  ILE21       0.0019
     44  CD1       54.9580    9.4420   57.8910 C.3    21  ILE21       0.0001
     45  N         62.6710    9.3200   59.7680 N.3    38  THR38      -0.1218
     46  CA        62.6600   10.0620   58.5110 C.3    38  THR38       0.1862
     47  C         64.0990   10.4390   58.1710 C.2    38  THR38       0.2287
     48  O         64.5730   10.1910   57.0620 O.2    38  THR38      -0.2866
     49  CB        61.8230   11.3550   58.6230 C.3    38  THR38       0.1770
     50  OG1       60.4640   11.0270   58.9490 O.3    38  THR38      -0.2211
     51  CG2       61.8580   12.1220   57.3070 C.3    38  THR38       0.0375
     52  N         65.9440    7.4220   56.9600 N.3    41  ALA41      -0.1245
     53  CA        65.5500    6.9770   55.6280 C.3    41  ALA41       0.1562
     54  C         66.2230    7.8150   54.5430 C.2    41  ALA41       0.2260
     55  O         66.7830    7.2820   53.5880 O.2    41  ALA41      -0.2867
     56  CB        64.0320    7.0510   55.4840 C.3    41  ALA41       0.0290
     57  N         63.8410    2.3660   51.9510 N.3    47  PHE47      -0.1241
     58  CA        62.7260    3.2990   51.9040 C.3    47  PHE47       0.1605
     59  C         61.3470    2.7480   52.2590 C.2    47  PHE47       0.2264
     60  O         60.7210    3.2160   53.2080 O.2    47  PHE47      -0.2867
     61  CB        62.6300    3.9930   50.5450 C.3    47  PHE47       0.0534
     62  CG        61.5950    5.0740   50.5210 C.ar   47  PHE47      -0.0203
     63  CD1       61.7700    6.2300   51.2790 C.ar   47  PHE47      -0.0042
     64  CD2       60.4080    4.9070   49.8170 C.ar   47  PHE47      -0.0042
     65  CE1       60.7770    7.1980   51.3420 C.ar   47  PHE47      -0.0003
     66  CE2       59.4080    5.8710   49.8740 C.ar   47  PHE47      -0.0003
     67  CZ        59.5930    7.0190   50.6380 C.ar   47  PHE47      -0.0000
     68  N         59.1560    3.6370   55.4540 N.3    51  LEU51      -0.1245
     69  CA        57.8980    4.3630   55.3080 C.3    51  LEU51       0.1561
     70  C         56.7430    3.6360   55.9880 C.2    51  LEU51       0.2260
     71  O         55.9770    4.2410   56.7370 O.2    51  LEU51      -0.2867
     72  CB        57.5760    4.5870   53.8240 C.3    51  LEU51       0.0270
     73  CG        56.4020    5.5390   53.5780 C.3    51  LEU51       0.0019
     74  CD1       56.6870    6.8750   54.2450 C.3    51  LEU51       0.0001
     75  CD2       56.1810    5.7220   52.0870 C.3    51  LEU51       0.0001
     76  N         56.8730    4.0730   59.6940 N.3    54  ARG54      -0.1245
     77  CA        56.4040    5.3700   60.1650 C.3    54  ARG54       0.1563
     78  C         54.8870    5.5330   60.0530 C.2    54  ARG54       0.2260
     79  O         54.2300    6.0120   60.9850 O.2    54  ARG54      -0.2867
     80  CB        57.1140    6.4830   59.3880 C.3    54  ARG54       0.0307
     81  CG        58.5980    6.6240   59.7090 C.3    54  ARG54       0.0489
     82  CD        59.2850    7.6260   58.7890 C.3    54  ARG54       0.2205
     83  NE        59.6450    7.0270   57.5070 N.pl3  54  ARG54      -0.0865
     84  CZ        59.9130    7.7210   56.4050 C.cat  54  ARG54       0.5346
     85  NH1       59.8580    9.0460   56.4240 N.pl3  54  ARG54       0.1354
     86  NH2       60.2490    7.0900   55.2880 N.pl3  54  ARG54       0.1354
     87  N         57.1910   11.9070   44.4130 N.3    97  SER97      -0.1202
     88  CA        57.4270   11.8340   45.8470 C.3    97  SER97       0.2020
     89  C         57.0780   10.5440   46.5650 C.2    97  SER97       0.2619
     90  O         56.0960    9.8750   46.2370 O.2    97  SER97      -0.2717
     91  CB        56.6580   12.9800   46.5130 C.3    97  SER97       0.2103
     92  OG        56.8290   12.9990   47.9200 O.3    97  SER97      -0.2182
     93  N         57.8910   10.2200   47.5640 N.am   98  GLY98      -0.1942
     94  CA        57.6430    9.0510   48.3840 C.3    98  GLY98       0.2014
     95  C         56.6670    9.5290   49.4430 C.2    98  GLY98       0.2639
     96  O         56.3480    8.8200   50.4020 O.2    98  GLY98      -0.2714
     97  N         56.2180   10.7710   49.2640 N.am   99  GLY99      -0.1954
     98  CA        55.2620   11.3770   50.1710 C.3    99  GLY99       0.1869
     99  C         53.8590   10.8780   49.8760 C.2    99  GLY99       0.2309
    100  O         53.6960    9.7940   49.3140 O.2    99  GLY99      -0.2863
    101  N         61.4210    5.9310   41.5050 N.3   142  LYS142     -0.1245
    102  CA        61.4980    7.2360   40.8540 C.3   142  LYS142      0.1561
    103  C         62.1140    7.1870   39.4630 C.2   142  LYS142      0.2260
    104  O         61.6770    7.9060   38.5630 O.2   142  LYS142     -0.2867
    105  CB        62.2490    8.2280   41.7430 C.3   142  LYS142      0.0271
    106  CG        61.5230    8.4930   43.0540 C.3   142  LYS142      0.0035
    107  CD        61.8010    9.8850   43.6120 C.3   142  LYS142      0.0206
    108  CE        61.0450   10.0860   44.9160 C.3   142  LYS142      0.1093
    109  NZ        61.3640   11.3820   45.5790 N.3   142  LYS142     -0.1314
    110  N         66.8830   15.4540   47.0180 N.3   165  ASP165     -0.1225
    111  CA        67.6140   15.7220   48.2480 C.3   165  ASP165      0.1805
    112  C         67.7060   14.5420   49.2070 C.2   165  ASP165      0.2598
    113  O         68.2780   14.6660   50.2920 O.2   165  ASP165     -0.2718
    114  CB        66.9970   16.9280   48.9610 C.3   165  ASP165      0.1424
    115  CG        65.7620   16.5720   49.7720 C.2   165  ASP165      0.3668
    116  OD1       65.0520   15.6070   49.4130 O.co2 165  ASP165     -0.2456
    117  OD2       65.4970   17.2760   50.7730 O.co2 165  ASP165     -0.2456
    118  N         67.1670   13.3940   48.8060 N.am  166  GLY166     -0.1957
    119  CA        67.2030   12.2340   49.6720 C.3   166  GLY166      0.1869
    120  C         67.6460   10.9420   49.0180 C.2   166  GLY166      0.2309
    121  O         67.8580   10.8740   47.8080 O.2   166  GLY166     -0.2863
    122  N         65.9580    8.2310   48.4620 N.3   168  ASN168     -0.1240
    123  CA        65.0100    7.6910   47.4940 C.3   168  ASN168      0.1653
    124  C         65.0050    8.4120   46.1450 C.2   168  ASN168      0.2266
    125  O         64.2270    8.0760   45.2480 O.2   168  ASN168     -0.2867
    126  CB        63.6040    7.6420   48.1130 C.3   168  ASN168      0.1155
    127  CG        63.0780    9.0020   48.5050 C.2   168  ASN168      0.2627
    128  OD1       63.8390    9.9120   48.8330 O.2   168  ASN168     -0.2716
    129  ND2       61.7540    9.1440   48.4910 N.am  168  ASN168     -0.0877
@<TRIPOS>BOND
     1   104   103    2
     2   103   102    1
     3   102   101    1
     4   102   105    1
     5   105   106    1
     6   106   107    1
     7   107   108    1
     8     1     2    1
     9    87    88    1
    10     2     3    1
    11     2     5    1
    12   108   109    1
    13   125   124    2
    14     4     3    2
    15     3     9   am
    16    88    91    1
    17    88    89    1
    18     5     6    1
    19     7     6    2
    20   124   123    1
    21    90    89    2
    22    91    92    1
    23     9    10    1
    24    89    93   am
    25     6     8   am
    26   110   111    1
    27    10    13    1
    28    10    11    1
    29    13    14    1
    30    15    14   ar
    31    15    17   ar
    32   123   126    1
    33   123   122    1
    34    93    94    1
    35   121   120    2
    36    14    16   ar
    37   126   127    1
    38    17    19   ar
    39   111   114    1
    40   111   112    1
    41    94    95    1
    42   129   127   am
    43   127   128    2
    44    11    12    2
    45    11    20   am
    46   118   112   am
    47   118   119    1
    48   114   115    1
    49   120   119    1
    50   112   113    2
    51    97    95   am
    52    97    98    1
    53   100    99    2
    54    16    18   ar
    55    19    18   ar
    56   116   115   ar
    57    95    96    2
    58    20    21    1
    59   115   117   ar
    60    64    66   ar
    61    64    62   ar
    62    66    67   ar
    63    99    98    1
    64    62    61    1
    65    62    63   ar
    66    61    58    1
    67    67    65   ar
    68    23    22    2
    69    21    22    1
    70    21    24    1
    71    63    65   ar
    72    26    25   ar
    73    24    25    1
    74    58    57    1
    75    58    59    1
    76    25    27   ar
    77    75    73    1
    78    59    60    2
    79    73    72    1
    80    73    74    1
    81    55    54    2
    82    72    69    1
    83    36    34   ar
    84    35    34   ar
    85    54    53    1
    86    34    33    1
    87    86    84    1
    88    69    68    1
    89    69    70    1
    90    56    53    1
    91    53    52    1
    92    29    28    1
    93    29    30    1
    94    29    32    1
    95    70    71    2
    96    30    31    2
    97    37    38    1
    98    33    32    1
    99    84    85    1
   100    84    83    2
   101    43    41    1
   102    41    38    1
   103    41    42    1
   104    48    47    2
   105    38    39    1
   106    51    49    1
   107    83    82    1
   108    42    44    1
   109    47    46    1
   110    46    49    1
   111    46    45    1
   112    49    50    1
   113    39    40    2
   114    82    81    1
   115    80    81    1
   116    80    77    1
   117    76    77    1
   118    78    77    1
   119    78    79    2
