@<TRIPOS>MOLECULE
tmp/1l7zA01.pdb
 144 134 0 0 0
SMALL
GASTEIGER

@<TRIPOS>ATOM
      1  N          4.8690   14.1980   79.9020 N.3     9  GLU9       -0.1245
      2  CA         5.0510   14.5290   78.4970 C.3     9  GLU9        0.1567
      3  C          6.3820   15.2420   78.2630 C.2     9  GLU9        0.2260
      4  O          7.0840   14.9440   77.2980 O.2     9  GLU9       -0.2867
      5  CB         3.8860   15.3910   78.0060 C.3     9  GLU9        0.0388
      6  CG         3.9680   15.7750   76.5600 C.3     9  GLU9        0.1160
      7  CD         2.7900   16.5160   76.0070 C.2     9  GLU9        0.3649
      8  OE1        1.8830   16.8450   76.7420 O.co2   9  GLU9       -0.2457
      9  OE2        2.7700   16.9520   74.8460 O.co2   9  GLU9       -0.2457
     10  N          9.3270   12.9270   78.4390 N.3    12  GLU12      -0.1231
     11  CA         9.4120   12.1060   77.2330 C.3    12  GLU12       0.1699
     12  C         10.0240   12.9390   76.1090 C.2    12  GLU12       0.2592
     13  O         10.8680   12.4640   75.3590 O.2    12  GLU12      -0.2718
     14  CB         8.0210   11.6250   76.8150 C.3    12  GLU12       0.0402
     15  CG         8.0090   10.7760   75.5520 C.3    12  GLU12       0.1161
     16  CD         8.9390    9.5880   75.6530 C.2    12  GLU12       0.3649
     17  OE1        8.8980    8.9070   76.6960 O.co2  12  GLU12      -0.2457
     18  OE2        9.7060    9.3300   74.6980 O.co2  12  GLU12      -0.2457
     19  N          9.5890   14.1860   76.0100 N.am   13  ALA13      -0.1980
     20  CA        10.1010   15.0940   75.0040 C.3    13  ALA13       0.1597
     21  C         11.5950   15.2960   75.2560 C.2    13  ALA13       0.2287
     22  O         12.3960   15.3620   74.3190 O.2    13  ALA13      -0.2864
     23  CB         9.3690   16.4170   75.0860 C.3    13  ALA13       0.0319
     24  N         13.6950   12.7640   73.8620 N.3    16  LEU16      -0.1231
     25  CA        13.8100   12.8340   72.4120 C.3    16  LEU16       0.1693
     26  C         15.0180   13.6670   72.0380 C.2    16  LEU16       0.2592
     27  O         15.6030   13.4860   70.9720 O.2    16  LEU16      -0.2718
     28  CB        12.5530   13.4340   71.7880 C.3    16  LEU16       0.0284
     29  CG        11.3220   12.5390   71.9150 C.3    16  LEU16       0.0019
     30  CD1       10.2210   13.0740   71.0080 C.3    16  LEU16       0.0001
     31  CD2       11.6810   11.1030   71.5270 C.3    16  LEU16       0.0001
     32  N         15.3920   14.5810   72.9230 N.am   17  PHE17      -0.1976
     33  CA        16.5520   15.4250   72.6890 C.3    17  PHE17       0.1639
     34  C         17.8170   14.7530   73.2140 C.2    17  PHE17       0.2290
     35  O         18.8350   14.7040   72.5340 O.2    17  PHE17      -0.2864
     36  CB        16.3810   16.7740   73.3810 C.3    17  PHE17       0.0560
     37  CG        15.3750   17.6640   72.7310 C.ar   17  PHE17      -0.0200
     38  CD1       14.0210   17.3670   72.7920 C.ar   17  PHE17      -0.0042
     39  CD2       15.7820   18.8140   72.0620 C.ar   17  PHE17      -0.0042
     40  CE1       13.0790   18.2050   72.1950 C.ar   17  PHE17      -0.0003
     41  CE2       14.8480   19.6630   71.4600 C.ar   17  PHE17      -0.0003
     42  CZ        13.4960   19.3590   71.5260 C.ar   17  PHE17      -0.0000
     43  N         14.2560   18.0720   62.0590 N.3    37  LEU37      -0.1245
     44  CA        13.0260   18.8280   61.8890 C.3    37  LEU37       0.1561
     45  C         13.1710   19.8100   60.7310 C.2    37  LEU37       0.2260
     46  O         12.4870   20.8280   60.6850 O.2    37  LEU37      -0.2867
     47  CB        12.6740   19.5830   63.1760 C.3    37  LEU37       0.0270
     48  CG        12.2820   18.7260   64.3840 C.3    37  LEU37       0.0019
     49  CD1       12.0540   19.6210   65.5890 C.3    37  LEU37       0.0001
     50  CD2       11.0350   17.9070   64.0530 C.3    37  LEU37       0.0001
     51  N         14.9830   22.1880   81.3070 N.3    66  PHE66      -0.1241
     52  CA        14.0540   21.9230   80.2080 C.3    66  PHE66       0.1605
     53  C         12.6220   22.0790   80.7010 C.2    66  PHE66       0.2264
     54  O         11.7650   22.6180   79.9990 O.2    66  PHE66      -0.2867
     55  CB        14.2400   20.5010   79.6830 C.3    66  PHE66       0.0534
     56  CG        13.4020   20.1810   78.4710 C.ar   66  PHE66      -0.0203
     57  CD1       13.8730   20.4570   77.1880 C.ar   66  PHE66      -0.0042
     58  CD2       12.1600   19.5720   78.6090 C.ar   66  PHE66      -0.0042
     59  CE1       13.1200   20.1230   76.0610 C.ar   66  PHE66      -0.0003
     60  CE2       11.3980   19.2340   77.4930 C.ar   66  PHE66      -0.0003
     61  CZ        11.8770   19.5080   76.2160 C.ar   66  PHE66      -0.0000
     62  N          6.8440   26.1470   62.9830 N.3    84  ALA84      -0.1245
     63  CA         6.5760   24.9280   63.7230 C.3    84  ALA84       0.1562
     64  C          5.4660   24.1700   63.0080 C.2    84  ALA84       0.2260
     65  O          5.5880   22.9800   62.7380 O.2    84  ALA84      -0.2867
     66  CB         6.1560   25.2700   65.1430 C.3    84  ALA84       0.0290
     67  N          6.5520   22.3450   59.8080 N.3    87  VAL87      -0.1231
     68  CA         7.3220   21.0990   59.8810 C.3    87  VAL87       0.1692
     69  C          6.3650   19.9060   59.9680 C.2    87  VAL87       0.2592
     70  O          6.6680   18.8030   59.5020 O.2    87  VAL87      -0.2718
     71  CB         8.2920   21.0590   61.1070 C.3    87  VAL87       0.0266
     72  CG1        8.7250   22.4590   61.4870 C.3    87  VAL87       0.0020
     73  CG2        7.6500   20.3430   62.2700 C.3    87  VAL87       0.0020
     74  N          5.2050   20.1430   60.5720 N.am   88  PHE88      -0.1976
     75  CA         4.1940   19.1090   60.7190 C.3    88  PHE88       0.1639
     76  C          3.3520   18.9810   59.4520 C.2    88  PHE88       0.2290
     77  O          3.1890   17.8940   58.9140 O.2    88  PHE88      -0.2864
     78  CB         3.2920   19.4400   61.8950 C.3    88  PHE88       0.0560
     79  CG         3.8960   19.1460   63.2220 C.ar   88  PHE88      -0.0200
     80  CD1        3.9250   17.8500   63.7080 C.ar   88  PHE88      -0.0042
     81  CD2        4.4100   20.1680   64.0040 C.ar   88  PHE88      -0.0042
     82  CE1        4.4510   17.5730   64.9590 C.ar   88  PHE88      -0.0003
     83  CE2        4.9400   19.9020   65.2570 C.ar   88  PHE88      -0.0003
     84  CZ         4.9590   18.6000   65.7360 C.ar   88  PHE88      -0.0000
     85  N          7.1960   12.3640   64.3180 N.3   105  MET105     -0.1245
     86  CA         7.5760   11.6150   65.5000 C.3   105  MET105      0.1570
     87  C          8.6560   10.6220   65.1030 C.2   105  MET105      0.2261
     88  O          9.6170   10.4100   65.8350 O.2   105  MET105     -0.2867
     89  CB         6.3750   10.8820   66.0880 C.3   105  MET105      0.0387
     90  CG         5.3450   11.8100   66.6860 C.3   105  MET105      0.0595
     91  SD         6.0060   12.9320   67.9570 S.3   105  MET105     -0.1393
     92  CE         6.1960   14.3900   67.0270 C.3   105  MET105      0.0692
     93  N         11.9680   12.1200   64.6100 N.3   108  LEU108     -0.1245
     94  CA        12.4730   12.4230   65.9380 C.3   108  LEU108      0.1561
     95  C         12.8860   11.1360   66.6500 C.2   108  LEU108      0.2260
     96  O         13.4100   11.1760   67.7600 O.2   108  LEU108     -0.2867
     97  CB        11.4050   13.1490   66.7630 C.3   108  LEU108      0.0270
     98  CG        11.1370   14.6190   66.4360 C.3   108  LEU108      0.0019
     99  CD1        9.9320   15.1110   67.2240 C.3   108  LEU108      0.0001
    100  CD2       12.3660   15.4490   66.7740 C.3   108  LEU108      0.0001
    101  N         10.8150    8.5830   67.6380 N.3   110  GLU110     -0.1245
    102  CA         9.8680    8.2030   68.6780 C.3   110  GLU110      0.1567
    103  C          8.9000    7.1680   68.1130 C.2   110  GLU110      0.2260
    104  O          8.3300    7.3630   67.0370 O.2   110  GLU110     -0.2867
    105  CB         9.1000    9.4380   69.1690 C.3   110  GLU110      0.0388
    106  CG         7.9640    9.1490   70.1510 C.3   110  GLU110      0.1160
    107  CD         8.4470    8.7740   71.5450 C.2   110  GLU110      0.3649
    108  OE1        8.9780    9.6560   72.2540 O.co2 110  GLU110     -0.2457
    109  OE2        8.2940    7.5960   71.9340 O.co2 110  GLU110     -0.2457
    110  N          5.4120    5.3220   68.4040 N.3   112  LEU112     -0.1245
    111  CA         4.0830    5.4980   68.9840 C.3   112  LEU112      0.1561
    112  C          3.0310    4.6370   68.2970 C.2   112  LEU112      0.2260
    113  O          3.0310    4.5040   67.0720 O.2   112  LEU112     -0.2867
    114  CB         3.6600    6.9650   68.8780 C.3   112  LEU112      0.0270
    115  CG         4.4600    7.9920   69.6790 C.3   112  LEU112      0.0019
    116  CD1        4.2670    9.3650   69.0730 C.3   112  LEU112      0.0001
    117  CD2        4.0260    7.9660   71.1360 C.3   112  LEU112      0.0001
    118  N         -2.9050   12.2180   70.4550 N.3   120  MET120     -0.1245
    119  CA        -2.2330   13.5100   70.3970 C.3   120  MET120      0.1570
    120  C         -3.0500   14.4350   69.5060 C.2   120  MET120      0.2261
    121  O         -3.2770   15.5910   69.8440 O.2   120  MET120     -0.2867
    122  CB        -0.8180   13.3550   69.8350 C.3   120  MET120      0.0387
    123  CG         0.1180   12.5330   70.7090 C.3   120  MET120      0.0595
    124  SD         1.8000   12.5100   70.0370 S.3   120  MET120     -0.1393
    125  CE         1.6540   11.2070   68.8340 C.3   120  MET120      0.0692
    126  N         -3.4840   24.6610   66.1970 N.3   137  PHE137     -0.1241
    127  CA        -2.0790   24.4230   66.4620 C.3   137  PHE137      0.1605
    128  C         -1.5590   25.4910   67.4240 C.2   137  PHE137      0.2264
    129  O         -0.8550   25.1930   68.3830 O.2   137  PHE137     -0.2867
    130  CB        -1.2960   24.4760   65.1560 C.3   137  PHE137      0.0534
    131  CG         0.1450   24.1210   65.3100 C.ar  137  PHE137     -0.0203
    132  CD1        0.5180   22.8230   65.6200 C.ar  137  PHE137     -0.0042
    133  CD2        1.1370   25.0820   65.1240 C.ar  137  PHE137     -0.0042
    134  CE1        1.8590   22.4800   65.7410 C.ar  137  PHE137     -0.0003
    135  CE2        2.4830   24.7470   65.2430 C.ar  137  PHE137     -0.0003
    136  CZ         2.8440   23.4440   65.5510 C.ar  137  PHE137     -0.0000
    137  N         -0.2490   25.6610   72.1410 N.3   141  MET141     -0.1245
    138  CA         0.9850   26.0340   72.8220 C.3   141  MET141      0.1570
    139  C          1.0610   27.4860   73.2880 C.2   141  MET141      0.2261
    140  O          2.1180   28.1110   73.2260 O.2   141  MET141     -0.2867
    141  CB         2.1640   25.7160   71.9050 C.3   141  MET141      0.0387
    142  CG         1.9780   26.2190   70.4840 C.3   141  MET141      0.0595
    143  SD         2.9800   25.2850   69.3230 S.3   141  MET141     -0.1393
    144  CE         4.4310   26.3090   69.2100 C.3   141  MET141      0.0692
@<TRIPOS>BOND
     1    77    76    2
     2    76    75    1
     3    70    69    2
     4    67    68    1
     5    68    69    1
     6    68    71    1
     7    69    74   am
     8    74    75    1
     9    46    45    2
    10    75    78    1
    11    45    44    1
    12    71    72    1
    13    71    73    1
    14    44    43    1
    15    44    47    1
    16    78    79    1
    17    65    64    2
    18    62    63    1
    19    64    63    1
    20    47    48    1
    21    79    80   ar
    22    79    81   ar
    23    80    82   ar
    24    63    66    1
    25    81    83   ar
    26    50    48    1
    27    85    86    1
    28    48    49    1
    29    93    94    1
    30    82    84   ar
    31    87    86    1
    32    87    88    2
    33   133   135   ar
    34   133   131   ar
    35   130   131    1
    36   130   127    1
    37   135   136   ar
    38    83    84   ar
    39   131   132   ar
    40    86    89    1
    41   136   134   ar
    42   132   134   ar
    43    94    95    1
    44    94    97    1
    45    89    90    1
    46   126   127    1
    47    98    97    1
    48    98   100    1
    49    98    99    1
    50   127   128    1
    51    95    96    2
    52    90    91    1
    53    92    91    1
    54   104   103    2
    55   113   112    2
    56   128   129    2
    57   101   102    1
    58   103   102    1
    59   112   111    1
    60   110   111    1
    61   102   105    1
    62   125   124    1
    63   114   111    1
    64   114   115    1
    65   116   115    1
    66   105   106    1
    67   144   143    1
    68   143   142    1
    69   120   121    2
    70   120   119    1
    71   115   117    1
    72   122   119    1
    73   122   123    1
    74   124   123    1
    75   106   107    1
    76   119   118    1
    77   142   141    1
    78    27    26    2
    79    30    29    1
    80    41    42   ar
    81    41    39   ar
    82    42    40   ar
    83    31    29    1
    84   107   109   ar
    85   107   108   ar
    86    28    29    1
    87    28    25    1
    88   141   138    1
    89    26    25    1
    90    26    32   am
    91    39    37   ar
    92   137   138    1
    93    40    38   ar
    94    25    24    1
    95    35    34    2
    96    33    32    1
    97    33    34    1
    98    33    36    1
    99    37    38   ar
   100    37    36    1
   101   138   139    1
   102   140   139    2
   103    22    21    2
   104    18    16   ar
   105     9     7   ar
   106    20    23    1
   107    20    21    1
   108    20    19    1
   109    13    12    2
   110    15    16    1
   111    15    14    1
   112    16    17   ar
   113     7     6    1
   114     7     8   ar
   115    19    12   am
   116    59    61   ar
   117    59    57   ar
   118    12    11    1
   119    61    60   ar
   120     6     5    1
   121    14    11    1
   122    57    56   ar
   123    11    10    1
   124     4     3    2
   125    60    58   ar
   126     5     2    1
   127     3     2    1
   128    56    58   ar
   129    56    55    1
   130     2     1    1
   131    55    52    1
   132    54    53    2
   133    52    53    1
   134    52    51    1
