@<TRIPOS>MOLECULE
tmp/1l7zA00.pdb
 146 136 0 0 0
SMALL
GASTEIGER

@<TRIPOS>ATOM
      1  N          0.4900   20.2260   85.5660 N.3     3  THR3       -0.1218
      2  CA        -0.0240   18.8950   85.8460 C.3     3  THR3        0.1862
      3  C          1.1040   17.8820   85.8880 C.2     3  THR3        0.2287
      4  O          2.2390   18.1850   85.5250 O.2     3  THR3       -0.2866
      5  CB        -1.0270   18.4410   84.7760 C.3     3  THR3        0.1770
      6  OG1       -0.3620   18.3280   83.5110 O.3     3  THR3       -0.2211
      7  CG2       -2.1640   19.4390   84.6610 C.3     3  THR3        0.0375
      8  N          0.8000   15.0080   84.2640 N.3     5  GLU5       -0.1231
      9  CA         0.7770   14.4220   82.9280 C.3     5  GLU5        0.1699
     10  C          1.6810   15.2420   82.0140 C.2     5  GLU5        0.2592
     11  O          2.2490   14.7200   81.0530 O.2     5  GLU5       -0.2718
     12  CB        -0.6500   14.4080   82.3700 C.3     5  GLU5        0.0402
     13  CG        -1.6220   13.5250   83.1460 C.3     5  GLU5        0.1161
     14  CD        -1.8610   14.0120   84.5690 C.2     5  GLU5        0.3649
     15  OE1       -2.3520   15.1500   84.7380 O.co2   5  GLU5       -0.2457
     16  OE2       -1.5550   13.2560   85.5190 O.co2   5  GLU5       -0.2457
     17  N          1.8010   16.5310   82.3240 N.am    6  GLN6       -0.1979
     18  CA         2.6530   17.4350   81.5610 C.3     6  GLN6        0.1601
     19  C          4.1080   17.1040   81.8750 C.2     6  GLN6        0.2287
     20  O          4.9590   17.0870   80.9860 O.2     6  GLN6       -0.2864
     21  CB         2.3480   18.8940   81.9260 C.3     6  GLN6        0.0394
     22  CG         1.1240   19.4640   81.2140 C.3     6  GLN6        0.0908
     23  CD         0.6990   20.8250   81.7470 C.2     6  GLN6        0.2608
     24  OE1        0.2080   20.9390   82.8700 O.2     6  GLN6       -0.2717
     25  NE2        0.8900   21.8650   80.9400 N.am    6  GLN6       -0.0878
     26  N          4.8690   14.1980   79.9020 N.3     9  GLU9       -0.1231
     27  CA         5.0510   14.5290   78.4970 C.3     9  GLU9        0.1699
     28  C          6.3820   15.2420   78.2630 C.2     9  GLU9        0.2592
     29  O          7.0840   14.9440   77.2980 O.2     9  GLU9       -0.2718
     30  CB         3.8860   15.3910   78.0060 C.3     9  GLU9        0.0402
     31  CG         3.9680   15.7750   76.5600 C.3     9  GLU9        0.1161
     32  CD         2.7900   16.5160   76.0070 C.2     9  GLU9        0.3649
     33  OE1        1.8830   16.8450   76.7420 O.co2   9  GLU9       -0.2457
     34  OE2        2.7700   16.9520   74.8460 O.co2   9  GLU9       -0.2457
     35  N          6.7300   16.1710   79.1510 N.am   10  PHE10      -0.1976
     36  CA         7.9790   16.9180   79.0280 C.3    10  PHE10       0.1639
     37  C          9.2090   16.0700   79.3150 C.2    10  PHE10       0.2290
     38  O         10.3060   16.3990   78.8740 O.2    10  PHE10      -0.2864
     39  CB         7.9860   18.1320   79.9580 C.3    10  PHE10       0.0560
     40  CG         6.9560   19.1680   79.6110 C.ar   10  PHE10      -0.0200
     41  CD1        6.7050   19.5030   78.2850 C.ar   10  PHE10      -0.0042
     42  CD2        6.2550   19.8330   80.6140 C.ar   10  PHE10      -0.0042
     43  CE1        5.7700   20.4830   77.9590 C.ar   10  PHE10      -0.0003
     44  CE2        5.3160   20.8180   80.2990 C.ar   10  PHE10      -0.0003
     45  CZ         5.0740   21.1440   78.9670 C.ar   10  PHE10      -0.0000
     46  N          9.3270   12.9270   78.4390 N.3    12  GLU12      -0.1245
     47  CA         9.4120   12.1060   77.2330 C.3    12  GLU12       0.1567
     48  C         10.0240   12.9390   76.1090 C.2    12  GLU12       0.2260
     49  O         10.8680   12.4640   75.3590 O.2    12  GLU12      -0.2867
     50  CB         8.0210   11.6250   76.8150 C.3    12  GLU12       0.0388
     51  CG         8.0090   10.7760   75.5520 C.3    12  GLU12       0.1160
     52  CD         8.9390    9.5880   75.6530 C.2    12  GLU12       0.3649
     53  OE1        8.8980    8.9070   76.6960 O.co2  12  GLU12      -0.2457
     54  OE2        9.7060    9.3300   74.6980 O.co2  12  GLU12      -0.2457
     55  N          9.9850   24.9200   79.4850 N.3    70  MET70      -0.1245
     56  CA         8.6330   24.5610   79.0790 C.3    70  MET70       0.1570
     57  C          7.6210   25.3130   79.9360 C.2    70  MET70       0.2261
     58  O          6.5430   25.6770   79.4660 O.2    70  MET70      -0.2867
     59  CB         8.4190   23.0520   79.2240 C.3    70  MET70       0.0387
     60  CG         9.3710   22.2100   78.3940 C.3    70  MET70       0.0595
     61  SD         9.2900   22.6210   76.6440 S.3    70  MET70      -0.1393
     62  CE         8.2930   21.2940   76.0200 C.3    70  MET70       0.0692
     63  N          5.2730   28.7100   79.3140 N.3    73  LYS73      -0.1245
     64  CA         4.1590   28.5780   78.3830 C.3    73  LYS73       0.1561
     65  C          3.4630   29.9300   78.2750 C.2    73  LYS73       0.2260
     66  O          2.5440   30.1080   77.4740 O.2    73  LYS73      -0.2867
     67  CB         3.1650   27.5250   78.8820 C.3    73  LYS73       0.0271
     68  CG         3.5470   26.0890   78.5580 C.3    73  LYS73       0.0035
     69  CD         3.4700   25.8270   77.0580 C.3    73  LYS73       0.0206
     70  CE         3.7580   24.3690   76.7290 C.3    73  LYS73       0.1093
     71  NZ         3.6960   24.0950   75.2640 N.3    73  LYS73      -0.1314
     72  N          5.4120    5.3220   68.4040 N.3   112  LEU112     -0.1245
     73  CA         4.0830    5.4980   68.9840 C.3   112  LEU112      0.1561
     74  C          3.0310    4.6370   68.2970 C.2   112  LEU112      0.2260
     75  O          3.0310    4.5040   67.0720 O.2   112  LEU112     -0.2867
     76  CB         3.6600    6.9650   68.8780 C.3   112  LEU112      0.0270
     77  CG         4.4600    7.9920   69.6790 C.3   112  LEU112      0.0019
     78  CD1        4.2670    9.3650   69.0730 C.3   112  LEU112      0.0001
     79  CD2        4.0260    7.9660   71.1360 C.3   112  LEU112      0.0001
     80  N         -1.9010    6.1160   69.9720 N.3   116  GLU116     -0.1245
     81  CA        -1.1940    7.2120   70.6210 C.3   116  GLU116      0.1567
     82  C         -1.1390    8.4650   69.7370 C.2   116  GLU116      0.2260
     83  O         -1.2310    9.5870   70.2310 O.2   116  GLU116     -0.2867
     84  CB         0.2100    6.7400   71.0120 C.3   116  GLU116      0.0388
     85  CG         0.1830    5.6170   72.0520 C.3   116  GLU116      0.1160
     86  CD         1.4970    4.8690   72.1740 C.2   116  GLU116      0.3649
     87  OE1        1.5970    3.9780   73.0440 O.co2 116  GLU116     -0.2457
     88  OE2        2.4280    5.1650   71.3970 O.co2 116  GLU116     -0.2457
     89  N         -4.5510   10.0290   69.6710 N.3   119  GLU119     -0.1231
     90  CA        -4.7600   10.7280   70.9350 C.3   119  GLU119      0.1699
     91  C         -4.1410   12.1210   70.9300 C.2   119  GLU119      0.2592
     92  O         -4.7660   13.0940   71.3570 O.2   119  GLU119     -0.2718
     93  CB        -4.1780    9.9130   72.0950 C.3   119  GLU119      0.0402
     94  CG        -4.5630   10.4490   73.4730 C.3   119  GLU119      0.1161
     95  CD        -6.0730   10.5590   73.6550 C.2   119  GLU119      0.3649
     96  OE1       -6.7690    9.5300   73.4910 O.co2 119  GLU119     -0.2457
     97  OE2       -6.5630   11.6730   73.9600 O.co2 119  GLU119     -0.2457
     98  N         -2.9050   12.2180   70.4550 N.am  120  MET120     -0.1979
     99  CA        -2.2330   13.5100   70.3970 C.3   120  MET120      0.1605
    100  C         -3.0500   14.4350   69.5060 C.2   120  MET120      0.2287
    101  O         -3.2770   15.5910   69.8440 O.2   120  MET120     -0.2864
    102  CB        -0.8180   13.3550   69.8350 C.3   120  MET120      0.0413
    103  CG         0.1180   12.5330   70.7090 C.3   120  MET120      0.0598
    104  SD         1.8000   12.5100   70.0370 S.3   120  MET120     -0.1393
    105  CE         1.6540   11.2070   68.8340 C.3   120  MET120      0.0692
    106  N         -6.3170   15.5840   71.4500 N.3   123  GLU123     -0.1245
    107  CA        -6.1830   16.6540   72.4300 C.3   123  GLU123      0.1567
    108  C         -5.9580   18.0410   71.8190 C.2   123  GLU123      0.2260
    109  O         -6.2340   19.0570   72.4630 O.2   123  GLU123     -0.2867
    110  CB        -5.0590   16.3170   73.4090 C.3   123  GLU123      0.0388
    111  CG        -5.3210   15.1680   74.3080 C.3   123  GLU123      0.1160
    112  CD        -4.1050   14.6690   75.0650 C.2   123  GLU123      0.3649
    113  OE1       -2.9670   15.1400   74.8200 O.co2 123  GLU123     -0.2457
    114  OE2       -4.2060   13.7440   75.8390 O.co2 123  GLU123     -0.2457
    115  N         -3.2520   27.5860   69.6010 N.3   139  GLN139     -0.1231
    116  CA        -3.8220   27.4180   70.9350 C.3   139  GLN139      0.1698
    117  C         -3.1880   26.2630   71.6890 C.2   139  GLN139      0.2592
    118  O         -3.1770   26.2450   72.9170 O.2   139  GLN139     -0.2718
    119  CB        -5.3270   27.1730   70.8490 C.3   139  GLN139      0.0381
    120  CG        -6.1000   28.2540   70.1370 C.3   139  GLN139      0.0905
    121  CD        -7.5790   28.1640   70.4290 C.2   139  GLN139      0.2608
    122  OE1       -8.3900   28.8800   69.8440 O.2   139  GLN139     -0.2717
    123  NE2       -7.9380   27.2820   71.3510 N.am  139  GLN139     -0.0878
    124  N         -2.6610   25.3010   70.9470 N.am  140  MET140     -0.1965
    125  CA        -2.0400   24.1290   71.5400 C.3   140  MET140      0.1736
    126  C         -0.7660   24.4490   72.3100 C.2   140  MET140      0.2616
    127  O         -0.2610   23.6100   73.0560 O.2   140  MET140     -0.2715
    128  CB        -1.7250   23.1210   70.4430 C.3   140  MET140      0.0427
    129  CG        -1.0510   21.8640   70.9220 C.3   140  MET140      0.0599
    130  SD        -0.3980   20.9710   69.5200 S.3   140  MET140     -0.1393
    131  CE         1.0510   22.0020   69.1240 C.3   140  MET140      0.0692
    132  N         -0.2490   25.6610   72.1410 N.am  141  MET141     -0.1963
    133  CA         0.9850   26.0340   72.8220 C.3   141  MET141      0.1736
    134  C          1.0610   27.4860   73.2880 C.2   141  MET141      0.2617
    135  O          2.1180   28.1110   73.2260 O.2   141  MET141     -0.2715
    136  CB         2.1640   25.7160   71.9050 C.3   141  MET141      0.0427
    137  CG         1.9780   26.2190   70.4840 C.3   141  MET141      0.0599
    138  SD         2.9800   25.2850   69.3230 S.3   141  MET141     -0.1393
    139  CE         4.4310   26.3090   69.2100 C.3   141  MET141      0.0692
    140  N         -0.0610   28.0100   73.7680 N.am  142  THR142     -0.1951
    141  CA        -0.1260   29.3850   74.2470 C.3   142  THR142      0.1897
    142  C         -1.0840   29.4920   75.4300 C.2   142  THR142      0.2313
    143  O         -0.7770   30.2600   76.3690 O.2   142  THR142     -0.2863
    144  CB        -0.5930   30.3530   73.1290 C.3   142  THR142      0.1794
    145  OG1       -1.8640   29.9280   72.6230 O.3   142  THR142     -0.2208
    146  CG2        0.4200   30.3860   71.9930 C.3   142  THR142      0.0378
@<TRIPOS>BOND
     1    75    74    2
     2    74    73    1
     3    72    73    1
     4   105   104    1
     5    76    73    1
     6    76    77    1
     7    78    77    1
     8   131   130    1
     9   139   138    1
    10   138   137    1
    11   100   101    2
    12   100    99    1
    13   130   129    1
    14   115   116    1
    15    89    90    1
    16    77    79    1
    17    82    83    2
    18    82    81    1
    19   102    99    1
    20   102   103    1
    21   122   121    2
    22    80    81    1
    23   104   103    1
    24   120   121    1
    25   120   119    1
    26    99    98    1
    27   121   123   am
    28   128   129    1
    29   128   125    1
    30    98    91   am
    31   137   136    1
    32    81    84    1
    33   119   116    1
    34    91    90    1
    35    91    92    2
    36    90    93    1
    37   116   117    1
    38   124   125    1
    39   124   117   am
    40    84    85    1
    41    88    86   ar
    42   106   107    1
    43   125   126    1
    44   117   118    2
    45   108   107    1
    46   108   109    2
    47   136   133    1
    48   146   144    1
    49    85    86    1
    50    93    94    1
    51   132   126   am
    52   132   133    1
    53    86    87   ar
    54   126   127    2
    55   107   110    1
    56   145   144    1
    57   133   134    1
    58   144   141    1
    59   135   134    2
    60   134   140   am
    61   110   111    1
    62    94    95    1
    63    96    95   ar
    64    95    97   ar
    65   140   141    1
    66   141   142    1
    67   111   112    1
    68    54    52   ar
    69   113   112   ar
    70    34    32   ar
    71   112   114   ar
    72    71    70    1
    73    49    48    2
    74   142   143    2
    75    51    52    1
    76    51    50    1
    77    52    53   ar
    78    32    31    1
    79    32    33   ar
    80    62    61    1
    81    48    47    1
    82    31    30    1
    83    61    60    1
    84    70    69    1
    85    50    47    1
    86    69    68    1
    87    47    46    1
    88    29    28    2
    89    66    65    2
    90    43    41   ar
    91    43    45   ar
    92    30    27    1
    93    28    27    1
    94    28    35   am
    95    65    64    1
    96    41    40   ar
    97    64    67    1
    98    64    63    1
    99    60    59    1
   100    27    26    1
   101    68    67    1
   102    38    37    2
   103    45    44   ar
   104    36    35    1
   105    36    37    1
   106    36    39    1
   107    56    59    1
   108    56    55    1
   109    56    57    1
   110    58    57    2
   111    40    39    1
   112    40    42   ar
   113    44    42   ar
   114    25    23   am
   115    20    19    2
   116    11    10    2
   117    22    23    1
   118    22    21    1
   119    18    19    1
   120    18    21    1
   121    18    17    1
   122    23    24    2
   123    10    17   am
   124    10     9    1
   125    12     9    1
   126    12    13    1
   127     9     8    1
   128    13    14    1
   129     6     5    1
   130    14    15   ar
   131    14    16   ar
   132     7     5    1
   133     5     2    1
   134     4     3    2
   135     1     2    1
   136     2     3    1
