@<TRIPOS>MOLECULE
tmp/1l8aB00.pdb
 163 153 0 0 0
SMALL
GASTEIGER

@<TRIPOS>ATOM
      1  N         31.7200  -26.6190   17.6210 N.3    51  HIS51      -0.1241
      2  CA        30.3150  -26.3380   17.9530 C.3    51  HIS51       0.1621
      3  C         30.0720  -26.0010   19.4250 C.2    51  HIS51       0.2264
      4  O         30.8160  -26.4420   20.3030 O.2    51  HIS51      -0.2867
      5  CB        29.4290  -27.5330   17.5760 C.3    51  HIS51       0.0745
      6  CG        29.7510  -28.1330   16.2440 C.ar   51  HIS51       0.0817
      7  ND1       28.8040  -28.3070   15.2580 N.ar   51  HIS51      -0.2268
      8  CD2       30.9190  -28.5930   15.7320 C.ar   51  HIS51       0.1154
      9  CE1       29.3750  -28.8490   14.1950 C.ar   51  HIS51       0.1986
     10  NE2       30.6580  -29.0330   14.4570 N.ar   51  HIS51      -0.2212
     11  N         24.9660  -27.3290   20.4240 N.3    54  SER54      -0.1217
     12  CA        24.5560  -28.6970   20.7310 C.3    54  SER54       0.1889
     13  C         24.8600  -29.1230   22.1620 C.2    54  SER54       0.2288
     14  O         23.9910  -29.6750   22.8480 O.2    54  SER54      -0.2866
     15  CB        25.2030  -29.6850   19.7620 C.3    54  SER54       0.2089
     16  OG        24.7760  -31.0130   20.0360 O.3    54  SER54      -0.2183
     17  N         28.3390  -38.0690   21.9510 N.3    85  GLN85      -0.1245
     18  CA        27.9920  -37.4570   20.6780 C.3    85  GLN85       0.1566
     19  C         29.2300  -36.6660   20.2460 C.2    85  GLN85       0.2260
     20  O         29.7910  -35.8950   21.0190 O.2    85  GLN85      -0.2867
     21  CB        26.7950  -36.5370   20.8640 C.3    85  GLN85       0.0367
     22  CG        26.1170  -36.0920   19.5780 C.3    85  GLN85       0.0905
     23  CD        24.9760  -35.1390   19.8660 C.2    85  GLN85       0.2608
     24  OE1       24.9250  -34.5370   20.9370 O.2    85  GLN85      -0.2717
     25  NE2       24.0550  -35.0040   18.9220 N.am   85  GLN85      -0.0878
     26  N         30.2160  -33.9290   18.2140 N.3    87  HIS87      -0.1241
     27  CA        30.3950  -32.4840   18.3080 C.3    87  HIS87       0.1621
     28  C         30.1580  -31.7990   19.6520 C.2    87  HIS87       0.2264
     29  O         30.2120  -30.5710   19.7270 O.2    87  HIS87      -0.2867
     30  CB        29.5890  -31.7760   17.2090 C.3    87  HIS87       0.0745
     31  CG        28.1280  -32.0770   17.2360 C.ar   87  HIS87       0.0817
     32  ND1       27.6040  -33.2750   16.8020 N.ar   87  HIS87      -0.2268
     33  CD2       27.0750  -31.3320   17.6430 C.ar   87  HIS87       0.1154
     34  CE1       26.2920  -33.2550   16.9420 C.ar   87  HIS87       0.1986
     35  NE2       25.9460  -32.0870   17.4500 N.ar   87  HIS87      -0.2212
     36  N         36.9830  -34.1110   17.4330 N.3   122  TYR122     -0.1241
     37  CA        36.0110  -35.1040   17.8720 C.3   122  TYR122      0.1605
     38  C         36.6490  -36.3600   18.4670 C.2   122  TYR122      0.2264
     39  O         37.8690  -36.4950   18.4830 O.2   122  TYR122     -0.2867
     40  CB        35.1380  -35.4870   16.6820 C.3   122  TYR122      0.0534
     41  CG        34.6250  -34.3030   15.8980 C.ar  122  TYR122     -0.0201
     42  CD1       35.0320  -34.0800   14.5740 C.ar  122  TYR122     -0.0009
     43  CD2       33.6960  -33.4200   16.4620 C.ar  122  TYR122     -0.0009
     44  CE1       34.5220  -33.0140   13.8320 C.ar  122  TYR122      0.0417
     45  CE2       33.1790  -32.3500   15.7320 C.ar  122  TYR122      0.0417
     46  CZ        33.5940  -32.1560   14.4170 C.ar  122  TYR122      0.1957
     47  OH        33.0700  -31.1110   13.6910 O.3   122  TYR122     -0.2866
     48  N         31.5780  -39.0890   15.3550 N.3   137  VAL137     -0.1231
     49  CA        31.2020  -37.9590   14.4890 C.3   137  VAL137      0.1692
     50  C         30.5500  -38.3300   13.1840 C.2   137  VAL137      0.2593
     51  O         29.7550  -37.5550   12.6660 O.2   137  VAL137     -0.2718
     52  CB        32.3500  -37.0120   14.0960 C.3   137  VAL137      0.0266
     53  CG1       31.9250  -35.5840   14.3950 C.3   137  VAL137      0.0020
     54  CG2       33.6100  -37.3710   14.7720 C.3   137  VAL137      0.0020
     55  N         30.9160  -39.4650   12.6030 N.am  138  SER138     -0.1938
     56  CA        30.2460  -39.8510   11.3750 C.3   138  SER138      0.2055
     57  C         28.9350  -40.4060   11.9100 C.2   138  SER138      0.2642
     58  O         28.8600  -41.5500   12.3650 O.2   138  SER138     -0.2714
     59  CB        31.0090  -40.9280   10.6100 C.3   138  SER138      0.2130
     60  OG        30.3330  -41.2120    9.3920 O.3   138  SER138     -0.2179
     61  N         27.9100  -39.5640   11.8710 N.am  139  MET139     -0.1976
     62  CA        26.6060  -39.9210   12.3860 C.3   139  MET139      0.1605
     63  C         26.0140  -41.1930   11.8090 C.2   139  MET139      0.2287
     64  O         26.2440  -41.5380   10.6450 O.2   139  MET139     -0.2864
     65  CB        25.6520  -38.7450   12.1980 C.3   139  MET139      0.0413
     66  CG        25.9730  -37.5980   13.1540 C.3   139  MET139      0.0598
     67  SD        25.2670  -36.0260   12.6870 S.3   139  MET139     -0.1393
     68  CE        26.0300  -34.9920   13.9060 C.3   139  MET139      0.0692
     69  N         21.8140  -37.6840   18.3010 N.3   174  GLY174     -0.1210
     70  CA        21.1060  -36.4550   17.9960 C.3   174  GLY174      0.1956
     71  C         19.8070  -36.9260   17.3830 C.2   174  GLY174      0.2612
     72  O         19.7460  -38.0590   16.8920 O.2   174  GLY174     -0.2717
     73  N         18.7520  -36.1140   17.4170 N.am  175  ASP175     -0.1959
     74  CA        17.5230  -36.6010   16.8120 C.3   175  ASP175      0.1840
     75  C         17.6300  -36.5370   15.2920 C.2   175  ASP175      0.2623
     76  O         17.0880  -37.3840   14.5970 O.2   175  ASP175     -0.2715
     77  CB        16.2830  -35.8420   17.3180 C.3   175  ASP175      0.1450
     78  CG        16.4400  -34.3400   17.2770 C.2   175  ASP175      0.3671
     79  OD1       17.4940  -33.8620   16.8410 O.co2 175  ASP175     -0.2456
     80  OD2       15.4980  -33.6310   17.6830 O.co2 175  ASP175     -0.2456
     81  N         18.3490  -35.5440   14.7740 N.am  176  GLY176     -0.1940
     82  CA        18.5050  -35.4310   13.3310 C.3   176  GLY176      0.2014
     83  C         19.2650  -36.6380   12.8120 C.2   176  GLY176      0.2638
     84  O         18.9390  -37.1870   11.7590 O.2   176  GLY176     -0.2714
     85  N         20.2760  -37.0400   13.5750 N.am  177  GLU177     -0.1977
     86  CA        21.1200  -38.1820   13.2540 C.3   177  GLU177      0.1602
     87  C         20.3080  -39.4810   13.0890 C.2   177  GLU177      0.2287
     88  O         20.7120  -40.3940   12.3650 O.2   177  GLU177     -0.2864
     89  CB        22.1670  -38.3630   14.3630 C.3   177  GLU177      0.0415
     90  CG        22.7990  -39.7470   14.4020 C.3   177  GLU177      0.1163
     91  CD        23.9180  -39.8710   15.4190 C.2   177  GLU177      0.3649
     92  OE1       23.9340  -39.0920   16.4030 O.co2 177  GLU177     -0.2457
     93  OE2       24.7820  -40.7550   15.2310 O.co2 177  GLU177     -0.2457
     94  N         19.7010  -41.2060    9.6590 N.3   180  GLU180     -0.1245
     95  CA        20.6800  -42.0750    8.9930 C.3   180  GLU180      0.1567
     96  C         20.1030  -43.4900    9.0800 C.2   180  GLU180      0.2260
     97  O         19.6990  -43.9290   10.1640 O.2   180  GLU180     -0.2867
     98  CB        22.0390  -42.0430    9.7180 C.3   180  GLU180      0.0388
     99  CG        22.8080  -40.7220    9.6580 C.3   180  GLU180      0.1160
    100  CD        23.3710  -40.4160    8.2790 C.2   180  GLU180      0.3649
    101  OE1       24.1720  -39.4610    8.1650 O.co2 180  GLU180     -0.2457
    102  OE2       23.0130  -41.1150    7.3110 O.co2 180  GLU180     -0.2457
    103  N         19.0320  -36.8560   21.9900 N.3   203  ASN203     -0.1240
    104  CA        18.8150  -35.4580   22.3240 C.3   203  ASN203      0.1653
    105  C         17.7380  -34.9430   21.3850 C.2   203  ASN203      0.2266
    106  O         17.9850  -34.7360   20.2000 O.2   203  ASN203     -0.2867
    107  CB        20.0980  -34.6540   22.1430 C.3   203  ASN203      0.1155
    108  CG        19.9580  -33.2310   22.6340 C.2   203  ASN203      0.2627
    109  OD1       18.8910  -32.8360   23.0960 O.2   203  ASN203     -0.2716
    110  ND2       21.0280  -32.4570   22.5390 N.am  203  ASN203     -0.0877
    111  N         16.0710  -31.9970   20.5650 N.3   205  ASN205     -0.1240
    112  CA        15.9360  -30.5460   20.5560 C.3   205  ASN205      0.1653
    113  C         15.1180  -30.1350   19.3350 C.2   205  ASN205      0.2266
    114  O         14.9680  -28.9470   19.0570 O.2   205  ASN205     -0.2867
    115  CB        17.3100  -29.8620   20.5470 C.3   205  ASN205      0.1155
    116  CG        18.2630  -30.4790   19.5530 C.2   205  ASN205      0.2627
    117  OD1       17.8410  -30.9640   18.5100 O.2   205  ASN205     -0.2716
    118  ND2       19.5520  -30.4650   19.8680 N.am  205  ASN205     -0.0877
    119  N         15.7040  -30.1730   16.2610 N.3   207  GLN207     -0.1231
    120  CA        16.4050  -29.5610   15.1470 C.3   207  GLN207      0.1698
    121  C         17.6900  -30.2610   14.7270 C.2   207  GLN207      0.2592
    122  O         18.4200  -30.7700   15.5660 O.2   207  GLN207     -0.2718
    123  CB        16.7400  -28.1100   15.5260 C.3   207  GLN207      0.0381
    124  CG        16.8350  -27.1420   14.3610 C.3   207  GLN207      0.0905
    125  CD        15.5690  -26.3240   14.1650 C.2   207  GLN207      0.2608
    126  OE1       15.5430  -25.3930   13.3580 O.2   207  GLN207     -0.2717
    127  NE2       14.5130  -26.6650   14.9000 N.am  207  GLN207     -0.0878
    128  N         17.9610  -30.3020   13.4240 N.am  208  ARG208     -0.1966
    129  CA        19.2280  -30.8670   12.9680 C.3   208  ARG208      0.1729
    130  C         20.1020  -29.6180   12.7920 C.2   208  ARG208      0.2616
    131  O         19.7100  -28.5380   13.2290 O.2   208  ARG208     -0.2715
    132  CB        19.0830  -31.6410   11.6480 C.3   208  ARG208      0.0348
    133  CG        17.8740  -31.2900   10.8340 C.3   208  ARG208      0.0492
    134  CD        18.0780  -31.6490    9.3840 C.3   208  ARG208      0.2205
    135  NE        17.4410  -30.6600    8.5230 N.pl3 208  ARG208     -0.0865
    136  CZ        16.3640  -30.9130    7.7980 C.cat 208  ARG208      0.5346
    137  NH1       15.8190  -32.1160    7.8350 N.pl3 208  ARG208      0.1354
    138  NH2       15.8090  -29.9600    7.0660 N.pl3 208  ARG208      0.1354
    139  N         21.2590  -29.7400   12.1490 N.am  209  LEU209     -0.1977
    140  CA        21.8190  -28.4210   11.5610 C.3   209  LEU209      0.1596
    141  C         21.1270  -27.1970   10.9540 C.2   209  LEU209      0.2287
    142  O         21.0930  -26.1220   11.5640 O.2   209  LEU209     -0.2864
    143  CB        23.0040  -28.8120   10.6670 C.3   209  LEU209      0.0297
    144  CG        24.4170  -28.3270   11.0080 C.3   209  LEU209      0.0022
    145  CD1       24.9720  -27.5510    9.8330 C.3   209  LEU209      0.0001
    146  CD2       24.4060  -27.4680   12.2600 C.3   209  LEU209      0.0001
    147  N         17.9300  -26.3520   21.7160 N.3   337  LYS337     -0.1245
    148  CA        19.2450  -26.3250   21.0720 C.3   337  LYS337      0.1561
    149  C         20.1420  -25.1450   21.4480 C.2   337  LYS337      0.2260
    150  O         21.2120  -25.3390   22.0290 O.2   337  LYS337     -0.2867
    151  CB        19.1000  -26.3910   19.5470 C.3   337  LYS337      0.0271
    152  CG        20.4370  -26.4230   18.8020 C.3   337  LYS337      0.0035
    153  CD        20.7440  -27.7960   18.2170 C.3   337  LYS337      0.0206
    154  CE        20.6970  -27.7790   16.6940 C.3   337  LYS337      0.1093
    155  NZ        21.7370  -28.6580   16.0760 N.3   337  LYS337     -0.1314
    156  N         32.6240  -46.7800    5.6320 N.3   524  ASP524     -0.1239
    157  CA        32.7170  -45.7310    6.6410 C.3   524  ASP524      0.1674
    158  C         33.0190  -46.3600    7.9930 C.2   524  ASP524      0.2266
    159  O         33.7350  -45.7840    8.8020 O.2   524  ASP524     -0.2867
    160  CB        31.4180  -44.9140    6.7080 C.3   524  ASP524      0.1410
    161  CG        31.6530  -43.4530    7.1320 C.2   524  ASP524      0.3668
    162  OD1       32.7930  -42.9390    7.0190 O.co2 524  ASP524     -0.2456
    163  OD2       30.6840  -42.8110    7.5800 O.co2 524  ASP524     -0.2456
@<TRIPOS>BOND
     1   156   157    1
     2   157   160    1
     3   157   158    1
     4   160   161    1
     5   162   161   ar
     6   138   136    1
     7   161   163   ar
     8   102   100   ar
     9   136   137    1
    10   136   135    2
    11   158   159    2
    12   101   100   ar
    13   100    99    1
    14   135   134    1
    15    95    96    1
    16    95    94    1
    17    95    98    1
    18    96    97    2
    19   134   133    1
    20    60    59    1
    21    99    98    1
    22   145   144    1
    23    59    56    1
    24    64    63    2
    25   143   144    1
    26   143   140    1
    27   133   132    1
    28   141   140    1
    29   141   142    2
    30   144   146    1
    31    56    57    1
    32    56    55    1
    33   140   139    1
    34   132   129    1
    35    84    83    2
    36    63    62    1
    37    61    57   am
    38    61    62    1
    39    57    58    2
    40   139   130   am
    41    65    62    1
    42    65    66    1
    43    88    87    2
    44    55    50   am
    45    51    50    2
    46    67    66    1
    47    67    68    1
    48   130   129    1
    49   130   131    2
    50    83    82    1
    51    83    85   am
    52   129   128    1
    53    87    86    1
    54    50    49    1
    55    86    85    1
    56    86    89    1
    57    82    81    1
    58   126   125    2
    59   128   121   am
    60    47    46    1
    61    44    46   ar
    62    44    42   ar
    63    52    53    1
    64    52    49    1
    65    52    54    1
    66   125   124    1
    67   125   127   am
    68     9    10   ar
    69     9     7   ar
    70   124   123    1
    71    89    90    1
    72    90    91    1
    73    46    45   ar
    74    10     8   ar
    75    49    48    1
    76    42    41   ar
    77    76    75    2
    78   121   120    1
    79   121   122    2
    80    81    75   am
    81   120   123    1
    82   120   119    1
    83    93    91   ar
    84     7     6   ar
    85    75    74    1
    86    91    92   ar
    87     8     6   ar
    88    45    43   ar
    89    41    43   ar
    90    41    40    1
    91   155   154    1
    92     6     5    1
    93    40    37    1
    94   154   153    1
    95    32    34   ar
    96    32    31   ar
    97    74    77    1
    98    74    73    1
    99    79    78   ar
   100    72    71    2
   101    34    35   ar
   102    30    31    1
   103    30    27    1
   104    31    33   ar
   105    78    77    1
   106    78    80   ar
   107    71    73   am
   108    71    70    1
   109    36    37    1
   110    35    33   ar
   111     5     2    1
   112     1     2    1
   113    37    38    1
   114     2     3    1
   115    70    69    1
   116    26    27    1
   117   153   152    1
   118    27    28    1
   119    38    39    2
   120   117   116    2
   121   152   151    1
   122    25    23   am
   123   114   113    2
   124   113   112    1
   125     3     4    2
   126   151   148    1
   127   116   118   am
   128   116   115    1
   129    22    23    1
   130    22    21    1
   131    28    29    2
   132    15    16    1
   133    15    12    1
   134    23    24    2
   135   106   105    2
   136    19    18    1
   137    19    20    2
   138    11    12    1
   139   115   112    1
   140   112   111    1
   141    18    21    1
   142    18    17    1
   143    12    13    1
   144   148   149    1
   145   148   147    1
   146   105   104    1
   147   149   150    2
   148   103   104    1
   149   107   104    1
   150   107   108    1
   151    13    14    2
   152   110   108   am
   153   108   109    2
