@<TRIPOS>MOLECULE
tmp/1l8gA00.pdb
 136 128 0 0 0
SMALL
GASTEIGER

@<TRIPOS>ATOM
      1  N         11.1100   37.5220   18.9820 N.3    45  TYR45      -0.1241
      2  CA        11.9940   38.1670   18.0210 C.3    45  TYR45       0.1605
      3  C         13.3980   37.5750   18.0970 C.2    45  TYR45       0.2264
      4  O         13.9940   37.4550   19.1640 O.2    45  TYR45      -0.2867
      5  CB        12.1150   39.6280   18.3860 C.3    45  TYR45       0.0534
      6  CG        10.8200   40.3200   18.3880 C.ar   45  TYR45      -0.0201
      7  CD1       10.1230   40.3880   17.2120 C.ar   45  TYR45      -0.0009
      8  CD2       10.3040   40.8620   19.5410 C.ar   45  TYR45      -0.0009
      9  CE1        8.8810   40.9940   17.1510 C.ar   45  TYR45       0.0417
     10  CE2        9.0970   41.5260   19.4740 C.ar   45  TYR45       0.0417
     11  CZ         8.3540   41.6060   18.2910 C.ar   45  TYR45       0.1957
     12  OH         7.1160   42.2230   18.2670 O.3    45  TYR45      -0.2866
     13  N         16.1290   38.9220   17.4830 N.3    47  ASP47      -0.1225
     14  CA        17.0680   39.9450   17.9470 C.3    47  ASP47       0.1805
     15  C         16.9390   40.3070   19.4300 C.2    47  ASP47       0.2597
     16  O         17.7800   41.0010   19.9660 O.2    47  ASP47      -0.2718
     17  CB        16.8250   41.2350   17.1440 C.3    47  ASP47       0.1424
     18  CG        17.5020   41.1930   15.7560 C.2    47  ASP47       0.3668
     19  OD1       18.2050   40.2370   15.4180 O.co2  47  ASP47      -0.2456
     20  OD2       17.3500   42.1350   14.9990 O.co2  47  ASP47      -0.2456
     21  N         15.8360   39.8310   20.0610 N.am   48  VAL48      -0.1980
     22  CA        15.6280   40.1440   21.4780 C.3    48  VAL48       0.1595
     23  C         15.5560   38.9110   22.3960 C.2    48  VAL48       0.2287
     24  O         14.6760   38.0660   22.3560 O.2    48  VAL48      -0.2864
     25  CB        14.5120   41.1870   21.7040 C.3    48  VAL48       0.0276
     26  CG1       13.9350   41.9300   20.4980 C.3    48  VAL48       0.0022
     27  CG2       13.7510   41.1440   23.0120 C.3    48  VAL48       0.0022
     28  N          1.1050   41.5710   18.0840 N.3   119  LYS119     -0.1245
     29  CA         2.2900   41.8820   18.8580 C.3   119  LYS119      0.1561
     30  C          2.3900   41.0950   20.1610 C.2   119  LYS119      0.2260
     31  O          3.3760   41.1010   20.8840 O.2   119  LYS119     -0.2867
     32  CB         2.2580   43.3760   19.1260 C.3   119  LYS119      0.0271
     33  CG         2.5270   44.1520   17.8440 C.3   119  LYS119      0.0035
     34  CD         3.9780   44.1050   17.4840 C.3   119  LYS119      0.0206
     35  CE         4.3450   44.9240   16.2710 C.3   119  LYS119      0.1093
     36  NZ         5.8040   45.0810   16.2020 N.3   119  LYS119     -0.1314
     37  N          3.7750   51.4540   19.8640 N.3   180  ASP180     -0.1225
     38  CA         5.0350   50.7360   19.6450 C.3   180  ASP180      0.1805
     39  C          6.1540   51.6620   19.0760 C.2   180  ASP180      0.2597
     40  O          5.9070   52.4050   18.1290 O.2   180  ASP180     -0.2718
     41  CB         4.7940   49.5070   18.7500 C.3   180  ASP180      0.1424
     42  CG         5.9090   48.4970   18.9550 C.2   180  ASP180      0.3668
     43  OD1        6.8340   48.7710   19.7040 O.co2 180  ASP180     -0.2456
     44  OD2        5.8400   47.4230   18.3860 O.co2 180  ASP180     -0.2456
     45  N          7.3200   51.6640   19.7470 N.am  181  PHE181     -0.1976
     46  CA         8.4300   52.5870   19.4270 C.3   181  PHE181      0.1639
     47  C          8.1020   54.0850   19.4930 C.2   181  PHE181      0.2290
     48  O          8.8650   54.9040   18.9860 O.2   181  PHE181     -0.2864
     49  CB         9.0150   52.3300   18.0450 C.3   181  PHE181      0.0560
     50  CG         9.6360   50.9690   17.9210 C.ar  181  PHE181     -0.0200
     51  CD1       10.9170   50.7510   18.4070 C.ar  181  PHE181     -0.0042
     52  CD2        8.9230   49.9300   17.3290 C.ar  181  PHE181     -0.0042
     53  CE1       11.4790   49.4960   18.2920 C.ar  181  PHE181     -0.0003
     54  CE2        9.4880   48.6770   17.2030 C.ar  181  PHE181     -0.0003
     55  CZ        10.7620   48.4680   17.6860 C.ar  181  PHE181     -0.0000
     56  N          6.0340   44.7790   27.1450 N.3   214  CYS214     -0.1221
     57  CA         5.3960   45.2840   25.9590 C.3   214  CYS214      0.1808
     58  C          5.3490   44.1680   24.9100 C.2   214  CYS214      0.2602
     59  O          5.0150   43.0370   25.1830 O.2   214  CYS214     -0.2717
     60  CB         6.1550   46.4700   25.4390 C.3   214  CYS214      0.0970
     61  SG         7.9180   46.2790   25.6820 S.3   214  CYS214     -0.0800
     62  N          5.7320   44.4800   23.6830 N.am  215  SER215     -0.1938
     63  CA         5.7460   43.3990   22.7430 C.3   215  SER215      0.2055
     64  C          7.0910   42.6280   22.8140 C.2   215  SER215      0.2642
     65  O          7.1640   41.4120   22.8650 O.2   215  SER215     -0.2714
     66  CB         5.5890   44.0280   21.3160 C.3   215  SER215      0.2130
     67  OG         5.5030   43.0950   20.1880 O.3   215  SER215     -0.2179
     68  N          8.2090   43.4070   22.8650 N.am  216  ALA216     -0.1977
     69  CA         9.5380   42.7950   23.0040 C.3   216  ALA216      0.1597
     70  C          9.9820   42.7030   24.4780 C.2   216  ALA216      0.2287
     71  O         10.9010   41.9770   24.8650 O.2   216  ALA216     -0.2864
     72  CB        10.5550   43.6040   22.2230 C.3   216  ALA216      0.0319
     73  N         11.2720   45.4540   25.9490 N.3   218  ILE218     -0.1231
     74  CA        12.4390   46.3580   26.0750 C.3   218  ILE218      0.1692
     75  C         12.1290   47.8840   25.9090 C.2   218  ILE218      0.2593
     76  O         12.5170   48.7060   26.7350 O.2   218  ILE218     -0.2718
     77  CB        13.6000   45.8780   25.1570 C.3   218  ILE218      0.0266
     78  CG1       13.3040   45.8960   23.6450 C.3   218  ILE218      0.0019
     79  CG2       14.0290   44.4840   25.5660 C.3   218  ILE218      0.0020
     80  CD1       14.4470   45.3300   22.7990 C.3   218  ILE218      0.0001
     81  N         11.3890   48.2590   24.8440 N.am  219  GLY219     -0.1942
     82  CA        11.2570   49.6970   24.5590 C.3   219  GLY219      0.2014
     83  C         10.4790   50.5060   25.5910 C.2   219  GLY219      0.2638
     84  O         11.0160   51.2130   26.4480 O.2   219  GLY219     -0.2714
     85  N          9.1460   50.3020   25.4860 N.am  220  ARG220     -0.1977
     86  CA         8.1190   50.7830   26.4380 C.3   220  ARG220      0.1597
     87  C          8.3490   50.2900   27.9110 C.2   220  ARG220      0.2287
     88  O          8.2540   51.0410   28.8780 O.2   220  ARG220     -0.2864
     89  CB         6.7350   50.3870   25.8880 C.3   220  ARG220      0.0334
     90  CG         6.3550   51.1220   24.5940 C.3   220  ARG220      0.0492
     91  CD         4.9630   50.7410   24.0370 C.3   220  ARG220      0.2205
     92  NE         5.1230   49.4540   23.3860 N.pl3 220  ARG220     -0.0865
     93  CZ         4.2490   48.9990   22.5150 C.cat 220  ARG220      0.5346
     94  NH1        3.1000   49.5670   22.4030 N.pl3 220  ARG220      0.1354
     95  NH2        4.5390   48.0250   21.6920 N.pl3 220  ARG220      0.1354
     96  N         20.5000   48.0140   31.7170 N.3   253  ARG253     -0.1245
     97  CA        20.8290   47.1890   30.5320 C.3   253  ARG253      0.1563
     98  C         21.9310   46.1160   30.8330 C.2   253  ARG253      0.2260
     99  O         22.2760   45.2760   30.0160 O.2   253  ARG253     -0.2867
    100  CB        21.1350   48.0210   29.2510 C.3   253  ARG253      0.0307
    101  CG        20.3820   49.3480   29.1290 C.3   253  ARG253      0.0489
    102  CD        19.6300   49.6160   27.8410 C.3   253  ARG253      0.2205
    103  NE        20.4910   49.7850   26.6890 N.pl3 253  ARG253     -0.0865
    104  CZ        20.0300   50.1980   25.4900 C.cat 253  ARG253      0.5346
    105  NH1       18.8430   50.6750   25.3510 N.pl3 253  ARG253      0.1354
    106  NH2       20.7420   50.0800   24.4280 N.pl3 253  ARG253      0.1354
    107  N         18.9840   43.4490   27.5170 N.3   257  MET257     -0.1230
    108  CA        19.3730   44.3000   26.3730 C.3   257  MET257      0.1702
    109  C         18.2640   45.2690   25.8930 C.2   257  MET257      0.2592
    110  O         17.0770   45.0110   25.9220 O.2   257  MET257     -0.2718
    111  CB        19.7540   43.3860   25.2080 C.3   257  MET257      0.0401
    112  CG        18.6020   42.4980   24.7190 C.3   257  MET257      0.0596
    113  SD        19.1000   41.5340   23.2600 S.3   257  MET257     -0.1393
    114  CE        20.3520   40.4810   24.0350 C.3   257  MET257      0.0692
    115  N         18.7020   46.4080   25.3800 N.am  258  GLY258     -0.1957
    116  CA        17.7980   47.1580   24.5110 C.3   258  GLY258      0.1869
    117  C         16.7650   48.0020   25.2460 C.2   258  GLY258      0.2309
    118  O         15.8950   48.6070   24.6440 O.2   258  GLY258     -0.2863
    119  N         14.0920   52.0240   23.3680 N.3   261  GLN261     -0.1245
    120  CA        14.3190   51.6780   21.9660 C.3   261  GLN261      0.1566
    121  C         14.6530   52.8800   21.0690 C.2   261  GLN261      0.2260
    122  O         15.3370   52.7510   20.0580 O.2   261  GLN261     -0.2867
    123  CB        13.1900   50.8520   21.4540 C.3   261  GLN261      0.0367
    124  CG        13.4080   49.3650   21.7940 C.3   261  GLN261      0.0905
    125  CD        14.6130   48.7660   21.0390 C.2   261  GLN261      0.2608
    126  OE1       14.6710   48.8080   19.8240 O.2   261  GLN261     -0.2717
    127  NE2       15.6380   48.4020   21.7980 N.am  261  GLN261     -0.0878
    128  N         11.9110   58.1840   23.4640 N.3   265  GLN265     -0.1245
    129  CA        11.5970   57.5300   24.7220 C.3   265  GLN265      0.1566
    130  C         12.6040   57.8870   25.8430 C.2   265  GLN265      0.2260
    131  O         12.2290   58.0530   26.9960 O.2   265  GLN265     -0.2867
    132  CB        11.6180   56.0170   24.5390 C.3   265  GLN265      0.0367
    133  CG        10.4100   55.4260   23.7890 C.3   265  GLN265      0.0905
    134  CD        10.6180   53.9490   23.4900 C.2   265  GLN265      0.2608
    135  OE1       11.6880   53.4020   23.6810 O.2   265  GLN265     -0.2717
    136  NE2        9.5960   53.3350   22.9600 N.am  265  GLN265     -0.0878
@<TRIPOS>BOND
     1    20    18   ar
     2    19    18   ar
     3    18    17    1
     4    36    35    1
     5    35    34    1
     6    17    14    1
     7     9     7   ar
     8     9    11   ar
     9    54    52   ar
    10    54    55   ar
    11     7     6   ar
    12    52    50   ar
    13    13    14    1
    14    34    33    1
    15    55    53   ar
    16    33    32    1
    17    50    49    1
    18    50    51   ar
    19    14    15    1
    20     2     3    1
    21     2     5    1
    22     2     1    1
    23    49    46    1
    24    28    29    1
    25     3     4    2
    26    40    39    2
    27    12    11    1
    28    11    10   ar
    29    53    51   ar
    30    44    42   ar
    31     5     6    1
    32     6     8   ar
    33    41    42    1
    34    41    38    1
    35    29    32    1
    36    29    30    1
    37    42    43   ar
    38    48    47    2
    39    39    38    1
    40    39    45   am
    41    46    47    1
    42    46    45    1
    43    15    16    2
    44    15    21   am
    45    10     8   ar
    46    38    37    1
    47   126   125    2
    48   122   121    2
    49    21    22    1
    50    30    31    2
    51    67    66    1
    52    26    25    1
    53   125   124    1
    54   125   127   am
    55   121   120    1
    56    66    63    1
    57   123   124    1
    58   123   120    1
    59    22    25    1
    60    22    23    1
    61    95    93    1
    62    25    27    1
    63   120   119    1
    64    72    69    1
    65    24    23    2
    66    94    93    1
    67    93    92    2
    68    63    64    1
    69    63    62    1
    70    80    78    1
    71    64    68   am
    72    64    65    2
    73    68    69    1
    74   136   134   am
    75    69    70    1
    76   113   114    1
    77   113   112    1
    78    92    91    1
    79   128   129    1
    80   134   135    2
    81   134   133    1
    82    78    77    1
    83    62    58   am
    84   133   132    1
    85    91    90    1
    86   106   104    1
    87    70    71    2
    88   116   117    1
    89   116   115    1
    90   132   129    1
    91    82    81    1
    92    82    83    1
    93    90    89    1
    94   118   117    2
    95   112   111    1
    96   129   130    1
    97    81    75   am
    98    58    59    2
    99    58    57    1
   100    77    79    1
   101    77    74    1
   102   111   108    1
   103   105   104    1
   104   115   109   am
   105    60    61    1
   106    60    57    1
   107    85    83   am
   108    85    86    1
   109   104   103    2
   110    83    84    2
   111   130   131    2
   112    89    86    1
   113   109   110    2
   114   109   108    1
   115    75    74    1
   116    75    76    2
   117    73    74    1
   118    57    56    1
   119   108   107    1
   120    86    87    1
   121   103   102    1
   122   102   101    1
   123    87    88    2
   124   101   100    1
   125   100    97    1
   126    99    98    2
   127    97    98    1
   128    97    96    1
