@<TRIPOS>MOLECULE
tmp/1l8jA00.pdb
 84 80 0 0 0
SMALL
GASTEIGER

@<TRIPOS>ATOM
      1  N         -4.6130   52.6810    6.7720 N.3     5  HIS5       -0.1226
      2  CA        -5.5630   52.7220    5.6630 C.3     5  HIS5        0.1752
      3  C         -4.7800   53.1010    4.4060 C.2     5  HIS5        0.2596
      4  O         -3.8720   53.9590    4.4810 O.2     5  HIS5       -0.2718
      5  CB        -6.6410   53.7580    5.8970 C.3     5  HIS5        0.0759
      6  CG        -7.7450   53.2900    6.7990 C.ar    5  HIS5        0.0818
      7  ND1       -8.9030   54.0110    6.9840 N.ar    5  HIS5       -0.2268
      8  CD2       -7.8580   52.1850    7.5720 C.ar    5  HIS5        0.1154
      9  CE1       -9.6880   53.3630    7.8300 C.ar    5  HIS5        0.1986
     10  NE2       -9.0740   52.2530    8.2020 N.ar    5  HIS5       -0.2212
     11  N         -5.1330   52.4750    3.2710 N.am    6  MET6       -0.1965
     12  CA        -4.4740   52.7160    1.9840 C.3     6  MET6        0.1736
     13  C         -5.5280   52.9960    0.9150 C.2     6  MET6        0.2616
     14  O         -6.5520   52.3220    0.8330 O.2     6  MET6       -0.2715
     15  CB        -3.6340   51.4990    1.5640 C.3     6  MET6        0.0427
     16  CG        -2.4290   51.2370    2.4620 C.3     6  MET6        0.0599
     17  SD        -1.7860   49.5500    2.3310 S.3     6  MET6       -0.1393
     18  CE        -2.8680   48.7520    3.4800 C.3     6  MET6        0.0692
     19  N         -5.2600   54.0090    0.0900 N.am    7  LEU7       -0.1977
     20  CA        -6.1860   54.3940   -0.9770 C.3     7  LEU7        0.1596
     21  C         -5.4020   54.4040   -2.2750 C.2     7  LEU7        0.2287
     22  O         -4.3180   54.9580   -2.3260 O.2     7  LEU7       -0.2864
     23  CB        -6.7620   55.7820   -0.7120 C.3     7  LEU7        0.0297
     24  CG        -7.6790   56.2900   -1.8270 C.3     7  LEU7        0.0022
     25  CD1       -8.9850   55.4820   -1.7810 C.3     7  LEU7        0.0001
     26  CD2       -7.9670   57.8110   -1.6460 C.3     7  LEU7        0.0001
     27  N         -2.6530   57.4950   -8.3910 N.3    21  GLN21      -0.1245
     28  CA        -2.6800   58.4940   -7.3260 C.3    21  GLN21       0.1566
     29  C         -3.0710   57.7250   -6.0310 C.2    21  GLN21       0.2260
     30  O         -4.1970   57.2430   -5.9020 O.2    21  GLN21      -0.2867
     31  CB        -3.7370   59.5810   -7.6330 C.3    21  GLN21       0.0367
     32  CG        -4.0000   60.5540   -6.5040 C.3    21  GLN21       0.0905
     33  CD        -5.3620   61.2930   -6.6100 C.2    21  GLN21       0.2608
     34  OE1       -5.9510   61.4190   -7.6900 O.2    21  GLN21      -0.2717
     35  NE2       -5.8440   61.7980   -5.4790 N.am   21  GLN21      -0.0878
     36  N         -2.2020   56.9310   -1.4730 N.3    23  ASN23      -0.1225
     37  CA        -1.5840   57.3690   -0.2300 C.3    23  ASN23       0.1785
     38  C         -2.0750   56.4690    0.8860 C.2    23  ASN23       0.2597
     39  O         -3.1190   55.8090    0.7490 O.2    23  ASN23      -0.2718
     40  CB        -1.8890   58.8660    0.0910 C.3    23  ASN23       0.1169
     41  CG        -3.3320   59.2740   -0.1770 C.2    23  ASN23       0.2627
     42  OD1       -3.7380   59.3810   -1.3270 O.2    23  ASN23      -0.2716
     43  ND2       -4.1050   59.5110    0.8800 N.am   23  ASN23      -0.0877
     44  N         -1.2770   56.3920    1.9480 N.am   24  ALA24      -0.1966
     45  CA        -1.6300   55.6030    3.1220 C.3    24  ALA24       0.1728
     46  C         -1.5050   56.4950    4.3440 C.2    24  ALA24       0.2616
     47  O         -0.7060   57.4600    4.3330 O.2    24  ALA24      -0.2715
     48  CB        -0.7280   54.4390    3.2610 C.3    24  ALA24       0.0334
     49  N         -2.3220   56.2010    5.3580 N.am   25  SER25      -0.1950
     50  CA        -2.3150   56.9290    6.6310 C.3    25  SER25       0.1924
     51  C         -2.2470   55.9350    7.7640 C.2    25  SER25       0.2314
     52  O         -3.0130   54.9580    7.7850 O.2    25  SER25      -0.2863
     53  CB        -3.5800   57.7590    6.8040 C.3    25  SER25       0.2116
     54  OG        -3.5990   58.8460    5.8730 O.3    25  SER25      -0.2180
     55  N         -1.0070   60.9800    7.4710 N.3    30  LEU30      -0.1245
     56  CA        -0.4490   60.6290    6.1770 C.3    30  LEU30       0.1561
     57  C          0.9830   60.1340    6.3350 C.2    30  LEU30       0.2260
     58  O          1.8330   60.7830    6.9670 O.2    30  LEU30      -0.2867
     59  CB        -0.5210   61.8360    5.2290 C.3    30  LEU30       0.0270
     60  CG        -1.9470   62.1290    4.7520 C.3    30  LEU30       0.0019
     61  CD1       -2.0160   63.5250    4.1590 C.3    30  LEU30       0.0001
     62  CD2       -2.3720   61.0850    3.7080 C.3    30  LEU30       0.0001
     63  N        -11.0060   52.5790   -7.9680 N.3    89  ARG89      -0.1245
     64  CA       -10.6150   53.0240   -6.6410 C.3    89  ARG89       0.1563
     65  C        -10.4870   51.7970   -5.7400 C.2    89  ARG89       0.2260
     66  O        -11.4480   51.0080   -5.6480 O.2    89  ARG89      -0.2867
     67  CB       -11.7230   53.9400   -6.1000 C.3    89  ARG89       0.0307
     68  CG       -11.5730   54.3840   -4.6630 C.3    89  ARG89       0.0489
     69  CD       -12.7570   55.3170   -4.3120 C.3    89  ARG89       0.2205
     70  NE       -12.5700   55.9920   -3.0380 N.pl3  89  ARG89      -0.0865
     71  CZ       -12.0850   57.2260   -2.8840 C.cat  89  ARG89       0.5346
     72  NH1      -11.7260   57.9720   -3.9270 N.pl3  89  ARG89       0.1354
     73  NH2      -11.9490   57.7120   -1.6630 N.pl3  89  ARG89       0.1354
     74  N         -9.7250   50.8450   -1.8320 N.3    91  PHE91      -0.1241
     75  CA        -9.6320   51.3430   -0.4600 C.3    91  PHE91       0.1605
     76  C         -9.4960   50.0810    0.4020 C.2    91  PHE91       0.2264
     77  O        -10.4060   49.2220    0.4170 O.2    91  PHE91      -0.2867
     78  CB       -10.9090   52.1340   -0.1150 C.3    91  PHE91       0.0534
     79  CG       -10.9760   52.6020    1.3070 C.ar   91  PHE91      -0.0203
     80  CD1       -9.8730   53.2190    1.9180 C.ar   91  PHE91      -0.0042
     81  CD2      -12.1520   52.4440    2.0380 C.ar   91  PHE91      -0.0042
     82  CE1       -9.9490   53.6720    3.2570 C.ar   91  PHE91      -0.0003
     83  CE2      -12.2420   52.8910    3.3630 C.ar   91  PHE91      -0.0003
     84  CZ       -11.1350   53.5050    3.9720 C.ar   91  PHE91      -0.0000
@<TRIPOS>BOND
     1    27    28    1
     2    63    64    1
     3    34    33    2
     4    31    28    1
     5    31    32    1
     6    28    29    1
     7    64    67    1
     8    64    65    1
     9    33    32    1
    10    33    35   am
    11    67    68    1
    12    29    30    2
    13    65    66    2
    14    68    69    1
    15    69    70    1
    16    72    71    1
    17    70    71    2
    18    71    73    1
    19    22    21    2
    20    21    20    1
    21    74    75    1
    22    24    25    1
    23    24    26    1
    24    24    23    1
    25    36    37    1
    26    42    41    2
    27    20    23    1
    28    20    19    1
    29    75    78    1
    30    75    76    1
    31    37    40    1
    32    37    38    1
    33    41    40    1
    34    41    43   am
    35    78    79    1
    36    19    13   am
    37    76    77    2
    38    39    38    2
    39    14    13    2
    40    38    44   am
    41    13    12    1
    42    79    80   ar
    43    79    81   ar
    44    15    12    1
    45    15    16    1
    46    80    82   ar
    47    44    45    1
    48    12    11    1
    49    81    83   ar
    50    17    16    1
    51    17    18    1
    52    45    48    1
    53    45    46    1
    54    82    84   ar
    55    11     3   am
    56    83    84   ar
    57    62    60    1
    58    61    60    1
    59    47    46    2
    60    46    49   am
    61     3     4    2
    62     3     2    1
    63    60    59    1
    64    59    56    1
    65    49    50    1
    66     2     5    1
    67     2     1    1
    68    54    53    1
    69     5     6    1
    70    56    57    1
    71    56    55    1
    72    57    58    2
    73    50    53    1
    74    50    51    1
    75     6     7   ar
    76     6     8   ar
    77     7     9   ar
    78     8    10   ar
    79    51    52    2
    80     9    10   ar
