@<TRIPOS>MOLECULE
tmp/1l8lA00.pdb
 101 94 0 0 0
SMALL
GASTEIGER

@<TRIPOS>ATOM
      1  N        -35.3400    1.9920  -19.5060 N.3    17  ASP17      -0.1239
      2  CA       -35.0450    1.1750  -20.6090 C.3    17  ASP17       0.1674
      3  C        -36.2310    1.3550  -21.4680 C.2    17  ASP17       0.2266
      4  O        -37.3680    1.1810  -21.0490 O.2    17  ASP17      -0.2867
      5  CB       -34.9620   -0.2730  -20.1240 C.3    17  ASP17       0.1410
      6  CG       -34.5120   -1.1630  -21.2720 C.2    17  ASP17       0.3668
      7  OD1      -35.3740   -1.5790  -22.0470 O.co2  17  ASP17      -0.2456
      8  OD2      -33.3190   -1.4340  -21.3760 O.co2  17  ASP17      -0.2456
      9  N        -36.9960   -0.2550  -24.5160 N.3    19  ASP19      -0.1225
     10  CA       -37.3870   -1.5510  -25.0810 C.3    19  ASP19       0.1805
     11  C        -37.5480   -2.6410  -24.0270 C.2    19  ASP19       0.2598
     12  O        -36.6250   -2.9520  -23.2720 O.2    19  ASP19      -0.2718
     13  CB       -36.3980   -2.0460  -26.1630 C.3    19  ASP19       0.1424
     14  CG       -36.2430   -1.0760  -27.3350 C.2    19  ASP19       0.3668
     15  OD1      -37.1990   -0.3440  -27.6810 O.co2  19  ASP19      -0.2456
     16  OD2      -35.1500   -1.0700  -27.9390 O.co2  19  ASP19      -0.2456
     17  N        -38.7440   -3.2100  -23.9940 N.am   20  SER20      -0.1952
     18  CA       -39.0680   -4.2930  -23.0920 C.3    20  SER20       0.1924
     19  C        -39.2790   -3.8640  -21.6600 C.2    20  SER20       0.2314
     20  O        -39.3500   -4.6900  -20.7520 O.2    20  SER20      -0.2863
     21  CB       -38.0370   -5.4070  -23.2070 C.3    20  SER20       0.2116
     22  OG       -38.2100   -6.0950  -24.4400 O.3    20  SER20      -0.2180
     23  N        -39.9480   -4.0110  -28.9530 N.3    26  GLU26      -0.1245
     24  CA       -38.5520   -3.6240  -29.1220 C.3    26  GLU26       0.1567
     25  C        -38.3600   -2.7450  -30.3600 C.2    26  GLU26       0.2260
     26  O        -39.0320   -2.9010  -31.3710 O.2    26  GLU26      -0.2867
     27  CB       -37.7160   -4.8990  -29.2580 C.3    26  GLU26       0.0388
     28  CG       -36.7190   -5.0680  -28.1090 C.3    26  GLU26       0.1160
     29  CD       -35.3170   -5.1700  -28.6700 C.2    26  GLU26       0.3649
     30  OE1      -35.1660   -5.1340  -29.8830 O.co2  26  GLU26      -0.2457
     31  OE2      -34.3820   -5.3020  -27.8810 O.co2  26  GLU26      -0.2457
     32  N        -35.8480   -1.9540  -32.3800 N.3    28  ILE28      -0.1245
     33  CA       -35.1000   -2.4920  -33.5140 C.3    28  ILE28       0.1561
     34  C        -35.8950   -3.5320  -34.3320 C.2    28  ILE28       0.2260
     35  O        -36.0520   -3.3850  -35.5490 O.2    28  ILE28      -0.2867
     36  CB       -33.7500   -3.0770  -32.9900 C.3    28  ILE28       0.0252
     37  CG1      -33.1430   -2.0780  -31.9540 C.3    28  ILE28       0.0019
     38  CG2      -32.7860   -3.3360  -34.1570 C.3    28  ILE28       0.0019
     39  CD1      -31.7810   -2.4520  -31.3320 C.3    28  ILE28       0.0001
     40  N        -21.3810   -5.6070  -29.3480 N.3    55  PHE55      -0.1241
     41  CA       -22.6160   -4.8360  -29.5030 C.3    55  PHE55       0.1605
     42  C        -22.5550   -3.8580  -30.6860 C.2    55  PHE55       0.2264
     43  O        -23.5350   -3.6170  -31.3780 O.2    55  PHE55      -0.2867
     44  CB       -22.8620   -4.0690  -28.2030 C.3    55  PHE55       0.0534
     45  CG       -24.1100   -3.2450  -28.3250 C.ar   55  PHE55      -0.0203
     46  CD1      -24.0200   -1.9180  -28.7260 C.ar   55  PHE55      -0.0042
     47  CD2      -25.3400   -3.7980  -28.0040 C.ar   55  PHE55      -0.0042
     48  CE1      -25.1670   -1.1410  -28.8000 C.ar   55  PHE55      -0.0003
     49  CE2      -26.4860   -3.0120  -28.0830 C.ar   55  PHE55      -0.0003
     50  CZ       -26.4050   -1.6830  -28.4800 C.ar   55  PHE55      -0.0000
     51  N        -31.7590    3.9360  -24.0970 N.3   106  SER106     -0.1202
     52  CA       -31.9500    2.8060  -25.0520 C.3   106  SER106      0.2020
     53  C        -30.7680    2.5300  -26.0370 C.2   106  SER106      0.2619
     54  O        -30.0170    3.4210  -26.4110 O.2   106  SER106     -0.2717
     55  CB       -33.2340    3.0650  -25.8420 C.3   106  SER106      0.2103
     56  OG       -33.6780    1.8440  -26.4340 O.3   106  SER106     -0.2182
     57  N        -30.7290    1.2800  -26.4950 N.am  107  GLY107     -0.1956
     58  CA       -29.7950    0.8950  -27.5260 C.3   107  GLY107      0.1869
     59  C        -30.5510    1.1200  -28.8160 C.2   107  GLY107      0.2309
     60  O        -29.9880    1.0390  -29.9020 O.2   107  GLY107     -0.2863
     61  N        -24.4160    1.4290  -21.5010 N.3   155  LYS155     -0.1245
     62  CA       -25.6710    1.7990  -20.8470 C.3   155  LYS155      0.1561
     63  C        -25.4120    2.4640  -19.4930 C.2   155  LYS155      0.2260
     64  O        -26.1780    3.3130  -19.0430 O.2   155  LYS155     -0.2867
     65  CB       -26.5450    0.5610  -20.6500 C.3   155  LYS155      0.0271
     66  CG       -27.9210    0.8750  -20.1140 C.3   155  LYS155      0.0035
     67  CD       -28.9790    0.9240  -21.1990 C.3   155  LYS155      0.0206
     68  CE       -29.2360   -0.4450  -21.7990 C.3   155  LYS155      0.1093
     69  NZ       -30.4410   -0.4930  -22.6880 N.3   155  LYS155     -0.1314
     70  N        -35.2690   -4.4650  -18.0380 N.3   176  ASP176     -0.1225
     71  CA       -35.5510   -5.8810  -18.2640 C.3   176  ASP176      0.1805
     72  C        -34.4640   -6.9080  -18.5590 C.2   176  ASP176      0.2598
     73  O        -34.6820   -8.1000  -18.3650 O.2   176  ASP176     -0.2718
     74  CB       -36.4810   -5.8740  -19.4680 C.3   176  ASP176      0.1424
     75  CG       -35.7220   -5.9660  -20.7780 C.2   176  ASP176      0.3668
     76  OD1      -35.1580   -4.9340  -21.2100 O.co2 176  ASP176     -0.2456
     77  OD2      -35.6820   -7.0750  -21.3640 O.co2 176  ASP176     -0.2456
     78  N        -33.3170   -6.4710  -19.0630 N.am  177  GLY177     -0.1942
     79  CA       -32.2660   -7.4280  -19.3790 C.3   177  GLY177      0.2014
     80  C        -31.0290   -7.2230  -18.5340 C.2   177  GLY177      0.2639
     81  O        -30.9550   -6.2520  -17.7990 O.2   177  GLY177     -0.2714
     82  N        -30.0470   -8.1090  -18.6390 N.am  178  ALA178     -0.1963
     83  CA       -28.8390   -7.9780  -17.8370 C.3   178  ALA178      0.1728
     84  C        -27.9820   -6.7740  -18.1920 C.2   178  ALA178      0.2617
     85  O        -26.9830   -6.5100  -17.5230 O.2   178  ALA178     -0.2715
     86  CB       -28.0100   -9.2380  -17.9290 C.3   178  ALA178      0.0334
     87  N        -28.3490   -6.0450  -19.2410 N.am  179  THR179     -0.1937
     88  CA       -27.5780   -4.8550  -19.6320 C.3   179  THR179      0.2028
     89  C        -28.0410   -3.6910  -18.7570 C.2   179  THR179      0.2642
     90  O        -27.2560   -2.8280  -18.3590 O.2   179  THR179     -0.2714
     91  CB       -27.8080   -4.5020  -21.1080 C.3   179  THR179      0.1808
     92  OG1      -27.4330   -5.6150  -21.9220 O.3   179  THR179     -0.2208
     93  CG2      -26.9600   -3.3260  -21.5020 C.3   179  THR179      0.0379
     94  N        -29.3410   -3.6930  -18.4820 N.am  180  ASP180     -0.1971
     95  CA       -29.9750   -2.7030  -17.6410 C.3   180  ASP180      0.1709
     96  C        -29.4650   -2.9390  -16.2330 C.2   180  ASP180      0.2293
     97  O        -29.1170   -1.9990  -15.5210 O.2   180  ASP180     -0.2864
     98  CB       -31.4860   -2.8980  -17.6690 C.3   180  ASP180      0.1436
     99  CG       -32.0750   -2.6250  -19.0300 C.2   180  ASP180      0.3671
    100  OD1      -33.1170   -3.2140  -19.3660 O.co2 180  ASP180     -0.2456
    101  OD2      -31.4950   -1.8050  -19.7690 O.co2 180  ASP180     -0.2456
@<TRIPOS>BOND
     1    35    34    2
     2    34    33    1
     3    38    36    1
     4    33    36    1
     5    33    32    1
     6    36    37    1
     7    37    39    1
     8    43    42    2
     9    26    25    2
    10    42    41    1
    11    25    24    1
    12    60    59    2
    13    30    29   ar
    14    41    40    1
    15    41    44    1
    16    27    24    1
    17    27    28    1
    18    24    23    1
    19    59    58    1
    20    48    46   ar
    21    48    50   ar
    22    46    45   ar
    23    29    28    1
    24    29    31   ar
    25    50    49   ar
    26    45    44    1
    27    45    47   ar
    28    49    47   ar
    29    16    14   ar
    30    15    14   ar
    31    58    57    1
    32    14    13    1
    33    57    53   am
    34    56    55    1
    35    54    53    2
    36    13    10    1
    37    53    52    1
    38    55    52    1
    39    10     9    1
    40    10    11    1
    41    52    51    1
    42    22    21    1
    43    11    17   am
    44    11    12    2
    45    17    18    1
    46    21    18    1
    47    18    19    1
    48    69    68    1
    49     7     6   ar
    50    92    91    1
    51    68    67    1
    52    19    20    2
    53    93    91    1
    54    61    62    1
    55     3     4    2
    56     3     2    1
    57     8     6   ar
    58    77    75   ar
    59     6     5    1
    60    76    75   ar
    61    67    66    1
    62    91    88    1
    63    62    65    1
    64    62    63    1
    65    75    74    1
    66    65    66    1
    67     2     5    1
    68     2     1    1
    69   101    99   ar
    70    88    87    1
    71    88    89    1
    72    63    64    2
    73    74    71    1
    74    79    78    1
    75    79    80    1
    76   100    99   ar
    77    87    84   am
    78    78    72   am
    79    99    98    1
    80    89    94   am
    81    89    90    2
    82    82    80   am
    83    82    83    1
    84    72    73    2
    85    72    71    1
    86    80    81    2
    87    94    95    1
    88    71    70    1
    89    84    83    1
    90    84    85    2
    91    86    83    1
    92    98    95    1
    93    95    96    1
    94    96    97    2
