@<TRIPOS>MOLECULE
tmp/1l8oB00.pdb
 100 91 0 0 0
SMALL
GASTEIGER

@<TRIPOS>ATOM
      1  N        -17.2200   19.4070  -64.2440 N.3    17  ASP17      -0.1239
      2  CA       -17.5550   19.6070  -62.8510 C.3    17  ASP17       0.1674
      3  C        -18.4840   20.7830  -62.6930 C.2    17  ASP17       0.2266
      4  O        -18.4220   21.7520  -63.4350 O.2    17  ASP17      -0.2867
      5  CB       -16.3000   19.8490  -62.0400 C.3    17  ASP17       0.1410
      6  CG       -15.3060   20.6730  -62.7760 C.2    17  ASP17       0.3668
      7  OD1      -14.1030   20.3340  -62.7080 O.co2  17  ASP17      -0.2456
      8  OD2      -15.7260   21.6480  -63.4210 O.co2  17  ASP17      -0.2456
      9  N        -19.0590   23.0720  -59.8470 N.3    19  ASP19      -0.1225
     10  CA       -18.5580   24.3340  -59.2880 C.3    19  ASP19       0.1805
     11  C        -17.7980   25.2450  -60.2480 C.2    19  ASP19       0.2598
     12  O        -16.7160   24.9080  -60.7460 O.2    19  ASP19      -0.2718
     13  CB       -17.6710   24.0830  -58.0520 C.3    19  ASP19       0.1424
     14  CG       -18.1080   22.8830  -57.2380 C.2    19  ASP19       0.3668
     15  OD1      -19.3220   22.8250  -56.8930 O.co2  19  ASP19      -0.2456
     16  OD2      -17.2060   22.0160  -56.9610 O.co2  19  ASP19      -0.2456
     17  N        -18.3860   26.4130  -60.4780 N.am   20  SER20      -0.1952
     18  CA       -17.7980   27.4150  -61.3280 C.3    20  SER20       0.1924
     19  C        -17.5720   26.9180  -62.7360 C.2    20  SER20       0.2314
     20  O        -16.8050   27.4990  -63.5010 O.2    20  SER20      -0.2863
     21  CB       -16.4940   27.9070  -60.7030 C.3    20  SER20       0.2116
     22  OG       -16.7770   28.6460  -59.5410 O.3    20  SER20      -0.2180
     23  N        -20.5630   28.6870  -56.4510 N.3    26  GLU26      -0.1245
     24  CA       -19.9340   27.5650  -55.7610 C.3    26  GLU26       0.1567
     25  C        -20.8060   26.9680  -54.6490 C.2    26  GLU26       0.2260
     26  O        -21.0460   27.6000  -53.6090 O.2    26  GLU26      -0.2867
     27  CB       -18.6130   28.0280  -55.1730 C.3    26  GLU26       0.0388
     28  CG       -17.4460   27.0970  -55.3380 C.3    26  GLU26       0.1160
     29  CD       -16.1820   27.8790  -55.1590 C.2    26  GLU26       0.3649
     30  OE1      -15.0640   27.3180  -55.3080 O.co2  26  GLU26      -0.2457
     31  OE2      -16.3220   29.0960  -54.8660 O.co2  26  GLU26      -0.2457
     32  N        -11.2090   27.8160  -48.8810 N.3    45  THR45      -0.1218
     33  CA       -11.1320   27.0970  -50.1500 C.3    45  THR45       0.1862
     34  C        -10.0050   27.6030  -51.0160 C.2    45  THR45       0.2287
     35  O         -9.1540   26.8290  -51.4210 O.2    45  THR45      -0.2866
     36  CB       -12.4030   27.2250  -50.9860 C.3    45  THR45       0.1770
     37  OG1      -13.5610   27.2720  -50.1350 O.3    45  THR45      -0.2211
     38  CG2      -12.5040   26.0270  -51.9200 C.3    45  THR45       0.0375
     39  N         -7.9120   16.6920  -50.3800 N.3    55  PHE55      -0.1241
     40  CA        -9.2710   17.1410  -50.3890 C.3    55  PHE55       0.1605
     41  C        -10.0850   16.6310  -49.2060 C.2    55  PHE55       0.2264
     42  O        -10.7030   17.4170  -48.4820 O.2    55  PHE55      -0.2867
     43  CB        -9.9180   16.7380  -51.6980 C.3    55  PHE55       0.0534
     44  CG       -11.1600   17.4910  -51.9890 C.ar   55  PHE55      -0.0203
     45  CD1      -11.1070   18.8470  -52.3010 C.ar   55  PHE55      -0.0042
     46  CD2      -12.3940   16.8590  -51.9040 C.ar   55  PHE55      -0.0042
     47  CE1      -12.2720   19.5610  -52.5240 C.ar   55  PHE55      -0.0003
     48  CE2      -13.5580   17.5580  -52.1230 C.ar   55  PHE55      -0.0003
     49  CZ       -13.5060   18.9170  -52.4350 C.ar   55  PHE55      -0.0000
     50  N        -16.7730   18.3710  -56.7100 N.3   107  GLY107     -0.1225
     51  CA       -16.4260   18.1300  -55.3340 C.3   107  GLY107      0.1811
     52  C        -17.6480   18.4580  -54.5070 C.2   107  GLY107      0.2280
     53  O        -17.6410   18.2960  -53.2840 O.2   107  GLY107     -0.2866
     54  N        -11.6390   13.1180  -58.9250 N.3   155  LYS155     -0.1245
     55  CA       -12.1580   13.3620  -60.2490 C.3   155  LYS155      0.1561
     56  C        -11.4670   12.4680  -61.3050 C.2   155  LYS155      0.2260
     57  O        -12.1450   11.8030  -62.0830 O.2   155  LYS155     -0.2867
     58  CB       -12.0240   14.8620  -60.5800 C.3   155  LYS155      0.0271
     59  CG       -13.1270   15.7150  -59.9590 C.3   155  LYS155      0.0035
     60  CD       -13.0590   17.1760  -60.3840 C.3   155  LYS155      0.0206
     61  CE       -14.1900   17.9870  -59.7280 C.3   155  LYS155      0.1093
     62  NZ       -13.8260   19.3740  -59.2930 N.3   155  LYS155     -0.1314
     63  N        -13.0150   24.3470  -64.4500 N.3   176  ASP176     -0.1225
     64  CA       -12.7130   25.7620  -64.4200 C.3   176  ASP176      0.1805
     65  C        -11.3610   26.0270  -63.7880 C.2   176  ASP176      0.2598
     66  O        -11.0730   27.1370  -63.3570 O.2   176  ASP176     -0.2718
     67  CB       -13.7930   26.5170  -63.6590 C.3   176  ASP176      0.1424
     68  CG       -13.7060   26.3000  -62.1840 C.2   176  ASP176      0.3668
     69  OD1      -14.2780   25.3100  -61.6780 O.co2 176  ASP176     -0.2456
     70  OD2      -13.0470   27.1220  -61.5230 O.co2 176  ASP176     -0.2456
     71  N        -10.5290   25.0020  -63.7390 N.am  177  GLY177     -0.1957
     72  CA        -9.2210   25.1740  -63.1540 C.3   177  GLY177      0.1869
     73  C         -8.4320   23.8790  -63.1310 C.2   177  GLY177      0.2309
     74  O         -9.0020   22.7860  -63.2160 O.2   177  GLY177     -0.2863
     75  N         -7.3460   22.6750  -60.8340 N.3   179  THR179     -0.1203
     76  CA        -7.7770   22.0570  -59.5770 C.3   179  THR179      0.1994
     77  C         -8.3910   20.6810  -59.8810 C.2   179  THR179      0.2617
     78  O         -8.7310   19.9020  -58.9790 O.2   179  THR179     -0.2717
     79  CB        -8.7970   22.9870  -58.8050 C.3   179  THR179      0.1784
     80  OG1      -10.1330   22.8430  -59.3240 O.3   179  THR179     -0.2211
     81  CG2       -8.3660   24.4560  -58.9260 C.3   179  THR179      0.0376
     82  N         -8.4840   20.4010  -61.1800 N.am  180  ASP180     -0.1973
     83  CA        -9.0170   19.1620  -61.7010 C.3   180  ASP180      0.1709
     84  C         -8.6090   18.9700  -63.1720 C.2   180  ASP180      0.2293
     85  O         -9.1370   18.1010  -63.8730 O.2   180  ASP180     -0.2864
     86  CB       -10.5530   19.1350  -61.5330 C.3   180  ASP180      0.1436
     87  CG       -11.2810   20.2060  -62.3590 C.2   180  ASP180      0.3671
     88  OD1      -11.2660   20.0980  -63.6020 O.co2 180  ASP180     -0.2456
     89  OD2      -11.8700   21.1420  -61.7600 O.co2 180  ASP180     -0.2456
     90  N         -8.0610   31.9540  -63.2920 N.3   199  ARG199     -0.1245
     91  CA        -6.9330   31.2690  -62.6590 C.3   199  ARG199      0.1563
     92  C         -5.8740   30.8300  -63.6850 C.2   199  ARG199      0.2260
     93  O         -6.0650   29.8680  -64.4290 O.2   199  ARG199     -0.2867
     94  CB        -7.4070   30.0610  -61.8380 C.3   199  ARG199      0.0307
     95  CG        -7.8020   30.4170  -60.4150 C.3   199  ARG199      0.0489
     96  CD        -7.8460   29.1800  -59.5610 C.3   199  ARG199      0.2205
     97  NE        -9.1070   28.4460  -59.6390 N.pl3 199  ARG199     -0.0865
     98  CZ       -10.2320   28.8330  -59.0500 C.cat 199  ARG199      0.5346
     99  NH1      -10.2600   29.9560  -58.3450 N.pl3 199  ARG199      0.1354
    100  NH2      -11.3170   28.0830  -59.1380 N.pl3 199  ARG199      0.1354
@<TRIPOS>BOND
     1    63    64    1
     2    93    92    2
     3    64    65    1
     4    64    67    1
     5     1     2    1
     6    85    84    2
     7    65    71   am
     8    65    66    2
     9    71    72    1
    10    92    91    1
    11    67    68    1
    12    88    87   ar
    13    20    19    2
    14     4     3    2
    15     8     6   ar
    16    90    91    1
    17    74    73    2
    18    84    83    1
    19    72    73    1
    20     2     3    1
    21     2     5    1
    22     6     7   ar
    23     6     5    1
    24    19    18    1
    25    91    94    1
    26    87    89   ar
    27    87    86    1
    28    68    69   ar
    29    68    70   ar
    30    57    56    2
    31    94    95    1
    32    83    86    1
    33    83    82    1
    34    18    21    1
    35    18    17    1
    36    56    55    1
    37    82    77   am
    38    75    76    1
    39    12    11    2
    40    21    22    1
    41    58    55    1
    42    58    59    1
    43    17    11   am
    44    95    96    1
    45    60    59    1
    46    60    61    1
    47    55    54    1
    48    11    10    1
    49    77    76    1
    50    77    78    2
    51     9    10    1
    52    61    62    1
    53    97    96    1
    54    97    98    2
    55    76    79    1
    56    80    79    1
    57    10    13    1
    58   100    98    1
    59    98    99    1
    60    81    79    1
    61    13    14    1
    62    14    16   ar
    63    14    15   ar
    64    50    51    1
    65    23    24    1
    66    24    27    1
    67    24    25    1
    68    28    27    1
    69    28    29    1
    70    51    52    1
    71    30    29   ar
    72    29    31   ar
    73    25    26    2
    74    52    53    2
    75    47    49   ar
    76    47    45   ar
    77    49    48   ar
    78    45    44   ar
    79    48    46   ar
    80    44    46   ar
    81    44    43    1
    82    38    36    1
    83    43    40    1
    84    35    34    2
    85    34    33    1
    86    36    33    1
    87    36    37    1
    88    40    39    1
    89    40    41    1
    90    33    32    1
    91    41    42    2
