@<TRIPOS>MOLECULE
tmp/1l8pA00.pdb
 168 157 0 0 0
SMALL
GASTEIGER

@<TRIPOS>ATOM
      1  N          4.1330   -7.9440   16.4460 N.3    38  ALA38      -0.1231
      2  CA         5.4890   -8.1910   16.9530 C.3    38  ALA38       0.1694
      3  C          5.3590   -8.1690   18.4720 C.2    38  ALA38       0.2592
      4  O          4.5000   -7.4650   18.9930 O.2    38  ALA38      -0.2718
      5  CB         6.4400   -7.0900   16.4840 C.3    38  ALA38       0.0304
      6  N          6.1960   -8.9290   19.1780 N.am   39  ALA39      -0.1966
      7  CA         6.1110   -8.9970   20.6430 C.3    39  ALA39       0.1728
      8  C          4.6350   -9.1810   21.0030 C.2    39  ALA39       0.2616
      9  O          4.1040   -8.4990   21.8780 O.2    39  ALA39      -0.2715
     10  CB         6.6540   -7.7130   21.2780 C.3    39  ALA39       0.0334
     11  N          3.9840  -10.1020   20.2990 N.am   40  THR40      -0.1951
     12  CA         2.5660  -10.3920   20.4810 C.3    40  THR40       0.1897
     13  C          2.1790  -10.8240   21.8910 C.2    40  THR40       0.2313
     14  O          2.9820  -11.4080   22.6190 O.2    40  THR40      -0.2863
     15  CB         2.1000  -11.4840   19.4870 C.3    40  THR40       0.1794
     16  OG1        2.8140  -12.7030   19.7360 O.3    40  THR40      -0.2208
     17  CG2        2.3660  -11.0420   18.0450 C.3    40  THR40       0.0378
     18  N         -2.3790  -14.4710   22.8010 N.3    44  GLU44      -0.1245
     19  CA        -2.8900  -14.4510   21.4310 C.3    44  GLU44       0.1567
     20  C         -2.9530  -15.8470   20.8110 C.2    44  GLU44       0.2260
     21  O         -2.2090  -16.7490   21.2110 O.2    44  GLU44      -0.2867
     22  CB        -2.0310  -13.5350   20.5460 C.3    44  GLU44       0.0388
     23  CG        -2.2530  -12.0520   20.7760 C.3    44  GLU44       0.1160
     24  CD        -1.4270  -11.1810   19.8350 C.2    44  GLU44       0.3649
     25  OE1       -1.2900  -11.5570   18.6500 O.co2  44  GLU44      -0.2457
     26  OE2       -0.9260  -10.1260   20.2770 O.co2  44  GLU44      -0.2457
     27  N         10.1470    0.5370   19.9230 N.3   159  HIS159     -0.1241
     28  CA        10.1710    0.9670   18.5290 C.3   159  HIS159      0.1621
     29  C         10.9630    2.2620   18.3590 C.2   159  HIS159      0.2264
     30  O         10.8290    2.9440   17.3450 O.2   159  HIS159     -0.2867
     31  CB         8.7460    1.1780   17.9970 C.3   159  HIS159      0.0745
     32  CG         8.1040   -0.0640   17.4580 C.ar  159  HIS159      0.0817
     33  ND1        8.6460   -0.7930   16.4210 N.ar  159  HIS159     -0.2268
     34  CD2        6.9480   -0.6870   17.7890 C.ar  159  HIS159      0.1154
     35  CE1        7.8500   -1.8090   16.1340 C.ar  159  HIS159      0.1986
     36  NE2        6.8120   -1.7670   16.9500 N.ar  159  HIS159     -0.2212
     37  N          5.0410    3.0710   23.5880 N.3   167  GLN167     -0.1231
     38  CA         5.1850    2.6000   22.2150 C.3   167  GLN167      0.1698
     39  C          4.5350    3.4390   21.1190 C.2   167  GLN167      0.2592
     40  O          5.1770    3.7440   20.1170 O.2   167  GLN167     -0.2718
     41  CB         4.6660    1.1630   22.1190 C.3   167  GLN167      0.0381
     42  CG         4.9370    0.4870   20.7910 C.3   167  GLN167      0.0905
     43  CD         4.6610   -0.9980   20.8420 C.2   167  GLN167      0.2608
     44  OE1        5.2280   -1.7150   21.6600 O.2   167  GLN167     -0.2717
     45  NE2        3.7860   -1.4680   19.9680 N.am  167  GLN167     -0.0878
     46  N          3.2720    3.8130   21.3060 N.am  168  GLU168     -0.1979
     47  CA         2.5560    4.5690   20.2850 C.3   168  GLU168      0.1602
     48  C          1.9090    5.8780   20.7300 C.2   168  GLU168      0.2287
     49  O          1.2150    5.9360   21.7460 O.2   168  GLU168     -0.2864
     50  CB         1.4830    3.6760   19.6490 C.3   168  GLU168      0.0415
     51  CG         2.0220    2.4880   18.8540 C.3   168  GLU168      0.1163
     52  CD         0.9230    1.5020   18.4580 C.2   168  GLU168      0.3649
     53  OE1       -0.1970    1.9570   18.1420 O.co2 168  GLU168     -0.2457
     54  OE2        1.1800    0.2790   18.4520 O.co2 168  GLU168     -0.2457
     55  N          4.9320    1.4680   11.3760 N.3   211  GLU211     -0.1245
     56  CA         3.5970    1.9560   11.0720 C.3   211  GLU211      0.1567
     57  C          3.5280    3.3170   10.3900 C.2   211  GLU211      0.2260
     58  O          2.4460    3.9040   10.2920 O.2   211  GLU211     -0.2867
     59  CB         2.7530    1.9600   12.3470 C.3   211  GLU211      0.0388
     60  CG         2.2380    0.5700   12.7030 C.3   211  GLU211      0.1160
     61  CD         1.5360    0.5300   14.0400 C.2   211  GLU211      0.3649
     62  OE1        0.8840    1.5350   14.3980 O.co2 211  GLU211     -0.2457
     63  OE2        1.6220   -0.5120   14.7250 O.co2 211  GLU211     -0.2457
     64  N         -0.6550    4.1600   23.2610 N.3   246  ASP246     -0.1239
     65  CA        -0.5450    2.7060   23.3660 C.3   246  ASP246      0.1674
     66  C          0.7510    2.4980   24.1290 C.2   246  ASP246      0.2266
     67  O          1.8380    2.4500   23.5440 O.2   246  ASP246     -0.2867
     68  CB        -0.4320    2.0170   22.0070 C.3   246  ASP246      0.1410
     69  CG        -0.3680    0.4960   22.1270 C.2   246  ASP246      0.3668
     70  OD1       -0.2050   -0.0130   23.2610 O.co2 246  ASP246     -0.2456
     71  OD2       -0.4640   -0.2050   21.0900 O.co2 246  ASP246     -0.2456
     72  N          1.6130   -0.1680   25.8040 N.3   248  ALA248     -0.1245
     73  CA         2.1190   -1.5250   25.6350 C.3   248  ALA248      0.1562
     74  C          3.0180   -1.8390   26.8310 C.2   248  ALA248      0.2260
     75  O          4.1000   -2.4100   26.6890 O.2   248  ALA248     -0.2867
     76  CB         2.9030   -1.6410   24.3320 C.3   248  ALA248      0.0290
     77  N         -4.1080    3.0710   25.7500 N.3   295  GLU295     -0.1231
     78  CA        -4.1510    1.6290   25.5440 C.3   295  GLU295      0.1699
     79  C         -3.0660    0.8880   26.3250 C.2   295  GLU295      0.2592
     80  O         -1.9440    1.3750   26.4670 O.2   295  GLU295     -0.2718
     81  CB        -3.9980    1.3450   24.0520 C.3   295  GLU295      0.0402
     82  CG        -4.0710   -0.1120   23.6660 C.3   295  GLU295      0.1161
     83  CD        -3.6740   -0.3250   22.2220 C.2   295  GLU295      0.3649
     84  OE1       -4.0220    0.5310   21.3780 O.co2 295  GLU295     -0.2457
     85  OE2       -3.0250   -1.3470   21.9300 O.co2 295  GLU295     -0.2457
     86  N         -3.4110   -0.3030   26.8100 N.am  296  ASP296     -0.1974
     87  CA        -2.4920   -1.1410   27.5790 C.3   296  ASP296      0.1709
     88  C         -1.5990   -0.3750   28.5570 C.2   296  ASP296      0.2293
     89  O         -0.3750   -0.5040   28.5270 O.2   296  ASP296     -0.2864
     90  CB        -1.6150   -1.9870   26.6430 C.3   296  ASP296      0.1436
     91  CG        -2.3290   -3.2270   26.1260 C.2   296  ASP296      0.3671
     92  OD1       -3.3330   -3.6420   26.7510 O.co2 296  ASP296     -0.2456
     93  OD2       -1.8780   -3.8030   25.1080 O.co2 296  ASP296     -0.2456
     94  N         -5.7590   -4.3480   24.9310 N.3   320  ASP320     -0.1225
     95  CA        -5.1900   -4.9980   23.7550 C.3   320  ASP320      0.1805
     96  C         -4.5930   -6.3470   24.1430 C.2   320  ASP320      0.2597
     97  O         -5.2200   -7.3890   23.9420 O.2   320  ASP320     -0.2718
     98  CB        -4.1220   -4.0880   23.1340 C.3   320  ASP320      0.1424
     99  CG        -3.4380   -4.7090   21.9260 C.2   320  ASP320      0.3668
    100  OD1       -3.9570   -5.6970   21.3790 O.co2 320  ASP320     -0.2456
    101  OD2       -2.3780   -4.1850   21.5220 O.co2 320  ASP320     -0.2456
    102  N         -3.3900   -6.3370   24.7090 N.am  321  ASP321     -0.1974
    103  CA        -2.7560   -7.5810   25.1270 C.3   321  ASP321      0.1709
    104  C         -3.5170   -8.2070   26.2890 C.2   321  ASP321      0.2293
    105  O         -3.4290   -9.4120   26.5260 O.2   321  ASP321     -0.2864
    106  CB        -1.3010   -7.3410   25.5370 C.3   321  ASP321      0.1436
    107  CG        -0.3750   -7.1960   24.3430 C.2   321  ASP321      0.3671
    108  OD1       -0.5540   -7.9450   23.3670 O.co2 321  ASP321     -0.2456
    109  OD2        0.5340   -6.3440   24.3890 O.co2 321  ASP321     -0.2456
    110  N         -9.5730   -3.3630   21.7930 N.3   343  LEU343     -0.1245
    111  CA        -8.8130   -3.1580   20.5760 C.3   343  LEU343      0.1561
    112  C         -9.1170   -4.4610   19.8430 C.2   343  LEU343      0.2260
    113  O         -8.7650   -5.5430   20.3220 O.2   343  LEU343     -0.2867
    114  CB        -7.3150   -3.0480   20.8650 C.3   343  LEU343      0.0270
    115  CG        -6.5060   -2.5420   19.6570 C.3   343  LEU343      0.0019
    116  CD1       -6.7900   -1.0560   19.4720 C.3   343  LEU343      0.0001
    117  CD2       -5.0090   -2.7760   19.8690 C.3   343  LEU343      0.0001
    118  N         -8.5080   -7.0460   17.0600 N.3   345  LYS345     -0.1245
    119  CA        -7.5410   -7.5770   16.1120 C.3   345  LYS345      0.1561
    120  C         -8.0040   -8.9740   15.7200 C.2   345  LYS345      0.2260
    121  O         -7.9660   -9.8980   16.5320 O.2   345  LYS345     -0.2867
    122  CB        -6.1540   -7.6470   16.7590 C.3   345  LYS345      0.0271
    123  CG        -5.4310   -6.3050   16.8180 C.3   345  LYS345      0.0035
    124  CD        -4.2500   -6.3520   17.7670 C.3   345  LYS345      0.0206
    125  CE        -3.4380   -5.0710   17.7180 C.3   345  LYS345      0.1093
    126  NZ        -2.4190   -5.0330   18.7990 N.3   345  LYS345     -0.1314
    127  N         -8.4120   -2.5300   14.9280 N.3   372  SER372     -0.1202
    128  CA        -6.9930   -2.2680   14.7440 C.3   372  SER372      0.2020
    129  C         -6.2540   -3.1740   13.7720 C.2   372  SER372      0.2619
    130  O         -6.6570   -4.3110   13.5060 O.2   372  SER372     -0.2717
    131  CB        -6.2800   -2.3480   16.0970 C.3   372  SER372      0.2103
    132  OG        -4.8770   -2.2950   15.9310 O.3   372  SER372     -0.2182
    133  N         -5.1520   -2.6400   13.2600 N.am  373  HIS373     -0.1961
    134  CA        -4.2800   -3.3730   12.3590 C.3   373  HIS373      0.1787
    135  C         -3.2530   -4.0210   13.2890 C.2   373  HIS373      0.2620
    136  O         -3.4290   -4.0440   14.5100 O.2   373  HIS373     -0.2715
    137  CB        -3.5580   -2.4040   11.4110 C.3   373  HIS373      0.0785
    138  CG        -2.7390   -1.3630   12.1130 C.ar  373  HIS373      0.0821
    139  ND1       -1.8610   -0.5310   11.4500 N.ar  373  HIS373     -0.2267
    140  CD2       -2.6560   -1.0180   13.4250 C.ar  373  HIS373      0.1154
    141  CE1       -1.2750    0.2740   12.3180 C.ar  373  HIS373      0.1986
    142  NE2       -1.7390   -0.0010   13.5210 N.ar  373  HIS373     -0.2212
    143  N         -2.1920   -4.5560   12.6980 N.am  374  ARG374     -0.1963
    144  CA        -1.0860   -5.1430   13.4480 C.3   374  ARG374      0.1729
    145  C          0.1070   -4.3540   12.9270 C.2   374  ARG374      0.2616
    146  O          0.0150   -3.7220   11.8730 O.2   374  ARG374     -0.2715
    147  CB        -0.8830   -6.6370   13.1400 C.3   374  ARG374      0.0348
    148  CG        -1.9660   -7.5830   13.6690 C.3   374  ARG374      0.0492
    149  CD        -2.4190   -7.2240   15.0860 C.3   374  ARG374      0.2205
    150  NE        -1.3960   -7.3930   16.1220 N.pl3 374  ARG374     -0.0865
    151  CZ        -1.1930   -8.5140   16.8120 C.cat 374  ARG374      0.5346
    152  NH1       -1.9320   -9.5860   16.5790 N.pl3 374  ARG374      0.1354
    153  NH2       -0.2810   -8.5490   17.7770 N.pl3 374  ARG374      0.1354
    154  N          1.2220   -4.3760   13.6500 N.am  375  SER375     -0.1950
    155  CA         2.4120   -3.6410   13.2140 C.3   375  SER375      0.1924
    156  C          2.8750   -4.1640   11.8520 C.2   375  SER375      0.2314
    157  O          3.4890   -3.4410   11.0640 O.2   375  SER375     -0.2863
    158  CB         3.5320   -3.7860   14.2470 C.3   375  SER375      0.2116
    159  OG         3.7750   -5.1520   14.5350 O.3   375  SER375     -0.2180
    160  N         -7.7590    2.1100   14.2450 N.3   396  LYS396     -0.1245
    161  CA        -6.3390    2.3600   14.3370 C.3   396  LYS396      0.1561
    162  C         -5.7290    1.5260   13.2290 C.2   396  LYS396      0.2260
    163  O         -5.6920    0.2990   13.3120 O.2   396  LYS396     -0.2867
    164  CB        -5.8110    1.8970   15.6860 C.3   396  LYS396      0.0271
    165  CG        -4.4670    2.4900   16.0370 C.3   396  LYS396      0.0035
    166  CD        -4.0140    2.0540   17.4180 C.3   396  LYS396      0.0206
    167  CE        -3.5350    0.6140   17.4100 C.3   396  LYS396      0.1093
    168  NZ        -2.8440    0.2600   18.6860 N.3   396  LYS396     -0.1314
@<TRIPOS>BOND
     1    58    57    2
     2    57    56    1
     3   157   156    2
     4    56    55    1
     5    56    59    1
     6   137   138    1
     7   137   134    1
     8   139   138   ar
     9   139   141   ar
    10   156   155    1
    11   146   145    2
    12   138   140   ar
    13   141   142   ar
    14    59    60    1
    15   134   133    1
    16   134   135    1
    17   143   135   am
    18   143   144    1
    19    60    61    1
    20   145   144    1
    21   145   154   am
    22   147   144    1
    23   147   148    1
    24   155   154    1
    25   155   158    1
    26   162   163    2
    27   162   161    1
    28   133   129   am
    29   135   136    2
    30   140   142   ar
    31   130   129    2
    32   148   149    1
    33   129   128    1
    34    61    62   ar
    35    61    63   ar
    36   160   161    1
    37   158   159    1
    38   161   164    1
    39   128   127    1
    40   128   131    1
    41   149   150    1
    42   164   165    1
    43   120   119    1
    44   120   121    2
    45   132   131    1
    46   165   166    1
    47   119   122    1
    48   119   118    1
    49   150   151    2
    50    35    33   ar
    51    35    36   ar
    52    33    32   ar
    53     1     2    1
    54     5     2    1
    55   152   151    1
    56   122   123    1
    57   151   153    1
    58   123   124    1
    59    36    34   ar
    60     2     3    1
    61    30    29    2
    62   167   166    1
    63   167   168    1
    64    32    34   ar
    65    32    31    1
    66   125   124    1
    67   125   126    1
    68    31    28    1
    69    17    15    1
    70    53    52   ar
    71    29    28    1
    72    54    52   ar
    73    52    51    1
    74     3     4    2
    75     3     6   am
    76    28    27    1
    77    25    24   ar
    78    51    50    1
    79     6     7    1
    80   116   115    1
    81    15    16    1
    82    15    12    1
    83    50    47    1
    84   115   117    1
    85   115   114    1
    86    24    26   ar
    87    24    23    1
    88   112   113    2
    89   112   111    1
    90    45    43   am
    91    40    39    2
    92    47    48    1
    93    47    46    1
    94    11    12    1
    95    11     8   am
    96    12    13    1
    97    22    23    1
    98    22    19    1
    99   111   114    1
   100   111   110    1
   101     7     8    1
   102     7    10    1
   103    48    49    2
   104    42    43    1
   105    42    41    1
   106    20    21    2
   107    20    19    1
   108    43    44    2
   109     8     9    2
   110    71    69   ar
   111    39    46   am
   112    39    38    1
   113    84    83   ar
   114   100    99   ar
   115    19    18    1
   116   101    99   ar
   117    13    14    2
   118    99    98    1
   119    85    83   ar
   120    68    69    1
   121    68    65    1
   122    41    38    1
   123    69    70   ar
   124    38    37    1
   125    83    82    1
   126    98    95    1
   127    64    65    1
   128    65    66    1
   129   108   107   ar
   130    67    66    2
   131    82    81    1
   132    95    96    1
   133    95    94    1
   134    97    96    2
   135    81    78    1
   136    96   102   am
   137    76    73    1
   138   107   109   ar
   139   107   106    1
   140   102   103    1
   141    93    91   ar
   142   103   106    1
   143   103   104    1
   144    78    77    1
   145    78    79    1
   146    73    72    1
   147    73    74    1
   148    91    90    1
   149    91    92   ar
   150   104   105    2
   151    79    80    2
   152    79    86   am
   153    90    87    1
   154    75    74    2
   155    86    87    1
   156    87    88    1
   157    89    88    2
