@<TRIPOS>MOLECULE
tmp/1l8qA00.pdb
 179 172 0 0 0
SMALL
GASTEIGER

@<TRIPOS>ATOM
      1  N         53.0170   76.1320   17.8980 N.3     6  LYS6       -0.1231
      2  CA        52.7250   77.4540   18.4720 C.3     6  LYS6        0.1693
      3  C         51.5890   77.4770   19.5120 C.2     6  LYS6        0.2592
      4  O         51.5290   78.3710   20.3390 O.2     6  LYS6       -0.2718
      5  CB        52.4590   78.4890   17.3710 C.3     6  LYS6        0.0285
      6  CG        51.0030   78.6030   16.9460 C.3     6  LYS6        0.0035
      7  CD        50.8160   79.5820   15.7830 C.3     6  LYS6        0.0206
      8  CE        49.3550   79.5860   15.2950 C.3     6  LYS6        0.1093
      9  NZ        49.1100   80.5820   14.2040 N.3     6  LYS6       -0.1314
     10  N         50.6940   76.4970   19.4600 N.am    7  TYR7       -0.1976
     11  CA        49.5860   76.4310   20.4100 C.3     7  TYR7        0.1639
     12  C         50.0050   75.6380   21.6280 C.2     7  TYR7        0.2290
     13  O         50.3330   74.4610   21.5020 O.2     7  TYR7       -0.2864
     14  CB        48.3970   75.7090   19.7870 C.3     7  TYR7        0.0560
     15  CG        47.8260   76.3110   18.5240 C.ar    7  TYR7       -0.0198
     16  CD1       47.1440   77.5170   18.5490 C.ar    7  TYR7       -0.0009
     17  CD2       47.9040   75.6280   17.3140 C.ar    7  TYR7       -0.0009
     18  CE1       46.5810   78.0370   17.3990 C.ar    7  TYR7        0.0417
     19  CE2       47.3460   76.1370   16.1680 C.ar    7  TYR7        0.0417
     20  CZ        46.6830   77.3360   16.2120 C.ar    7  TYR7        0.1957
     21  OH        46.1290   77.8470   15.0630 O.3     7  TYR7       -0.2866
     22  N         50.5780   78.8900   26.7630 N.3    11  ASN11      -0.1225
     23  CA        50.1870   80.1990   26.2470 C.3    11  ASN11       0.1785
     24  C         48.6940   80.3470   26.0330 C.2    11  ASN11       0.2597
     25  O         48.2490   81.2460   25.3300 O.2    11  ASN11      -0.2718
     26  CB        50.9890   80.6400   25.0060 C.3    11  ASN11       0.1169
     27  CG        50.9740   79.6140   23.8820 C.2    11  ASN11       0.2627
     28  OD1       51.9830   79.4240   23.2080 O.2    11  ASN11      -0.2716
     29  ND2       49.8230   78.9600   23.6640 N.am   11  ASN11      -0.0877
     30  N         47.9210   79.4490   26.6300 N.am   12  PHE12      -0.1962
     31  CA        46.4770   79.6040   26.6400 C.3    12  PHE12       0.1771
     32  C         46.1530   80.4370   27.8620 C.2    12  PHE12       0.2619
     33  O         46.4250   80.0200   28.9930 O.2    12  PHE12      -0.2715
     34  CB        45.7770   78.2460   26.7310 C.3    12  PHE12       0.0574
     35  CG        44.2790   78.3040   26.5050 C.ar   12  PHE12      -0.0200
     36  CD1       43.7510   78.2500   25.2190 C.ar   12  PHE12      -0.0042
     37  CD2       43.4030   78.3790   27.5790 C.ar   12  PHE12      -0.0042
     38  CE1       42.3750   78.2880   25.0170 C.ar   12  PHE12      -0.0003
     39  CE2       42.0330   78.4090   27.3800 C.ar   12  PHE12      -0.0003
     40  CZ        41.5200   78.3640   26.1000 C.ar   12  PHE12      -0.0000
     41  N         45.6290   81.6360   27.6440 N.am   13  ILE13      -0.1977
     42  CA        45.2240   82.4780   28.7580 C.3    13  ILE13       0.1596
     43  C         43.8590   82.0300   29.2760 C.2    13  ILE13       0.2287
     44  O         42.9610   81.7340   28.5040 O.2    13  ILE13      -0.2864
     45  CB        45.1960   83.9610   28.3440 C.3    13  ILE13       0.0276
     46  CG1       46.5260   84.3470   27.6970 C.3    13  ILE13       0.0022
     47  CG2       44.9160   84.8540   29.5520 C.3    13  ILE13       0.0022
     48  CD1       46.6210   85.7990   27.3080 C.3    13  ILE13       0.0001
     49  N         36.6610   80.2870   29.6530 N.3    18  ASN18      -0.1240
     50  CA        37.2800   79.1110   29.0520 C.3    18  ASN18       0.1653
     51  C         37.8980   78.1780   30.0780 C.2    18  ASN18       0.2266
     52  O         38.5910   77.2160   29.7350 O.2    18  ASN18      -0.2867
     53  CB        38.3220   79.5130   27.9960 C.3    18  ASN18       0.1155
     54  CG        39.3460   80.5410   28.5240 C.2    18  ASN18       0.2627
     55  OD1       39.9660   81.2710   27.7450 O.2    18  ASN18      -0.2716
     56  ND2       39.5190   80.5960   29.8370 N.am   18  ASN18      -0.0877
     57  N         33.3440   81.0630   16.6540 N.3    45  VAL45      -0.1231
     58  CA        34.6450   81.2890   16.0410 C.3    45  VAL45       0.1692
     59  C         35.6180   82.1310   16.8720 C.2    45  VAL45       0.2593
     60  O         35.2450   83.1390   17.4550 O.2    45  VAL45      -0.2718
     61  CB        34.5000   81.9320   14.6170 C.3    45  VAL45       0.0266
     62  CG1       35.8370   82.3300   14.0860 C.3    45  VAL45       0.0020
     63  CG2       33.8690   80.9310   13.6450 C.3    45  VAL45       0.0020
     64  N         36.8790   81.7150   16.8900 N.am   46  GLY46      -0.1942
     65  CA        37.9350   82.4760   17.5310 C.3    46  GLY46       0.2014
     66  C         37.7810   82.4380   19.0170 C.2    46  GLY46       0.2640
     67  O         37.9560   83.4260   19.7030 O.2    46  GLY46      -0.2714
     68  N         37.4910   81.2690   19.5330 N.am   47  THR47      -0.1936
     69  CA        37.1280   81.1590   20.9060 C.3    47  THR47       0.2028
     70  C         38.0670   80.2700   21.6980 C.2    47  THR47       0.2643
     71  O         37.9530   80.1650   22.9200 O.2    47  THR47      -0.2714
     72  CB        35.6990   80.6680   20.9640 C.3    47  THR47       0.1808
     73  OG1       34.8440   81.7590   21.3490 O.3    47  THR47      -0.2208
     74  CG2       35.5300   79.6570   22.0490 C.3    47  THR47       0.0379
     75  N         39.0060   79.6380   21.0000 N.am   48  GLY48      -0.1939
     76  CA        40.0040   78.8060   21.6500 C.3    48  GLY48       0.2014
     77  C         39.9560   77.3180   21.3300 C.2    48  GLY48       0.2639
     78  O         40.8300   76.5620   21.7620 O.2    48  GLY48      -0.2714
     79  N         38.9500   76.8910   20.5730 N.am   49  LYS49      -0.1963
     80  CA        38.7910   75.4710   20.2610 C.3    49  LYS49       0.1728
     81  C         40.0440   74.8460   19.6230 C.2    49  LYS49       0.2617
     82  O         40.5910   73.8750   20.1360 O.2    49  LYS49      -0.2715
     83  CB        37.5400   75.2400   19.3870 C.3    49  LYS49       0.0311
     84  CG        36.2620   75.8020   20.0010 C.3    49  LYS49       0.0038
     85  CD        35.0330   75.5580   19.1180 C.3    49  LYS49       0.0206
     86  CE        35.2750   76.0080   17.6870 C.3    49  LYS49       0.1093
     87  NZ        35.3010   77.4960   17.5190 N.3    49  LYS49      -0.1314
     88  N         40.5100   75.4080   18.5200 N.am   50  THR50      -0.1937
     89  CA        41.6340   74.8080   17.8330 C.3    50  THR50       0.2028
     90  C         42.8900   74.9180   18.6900 C.2    50  THR50       0.2642
     91  O         43.6550   73.9720   18.8410 O.2    50  THR50      -0.2714
     92  CB        41.8300   75.4550   16.4620 C.3    50  THR50       0.1808
     93  OG1       40.6870   75.1820   15.6310 O.3    50  THR50      -0.2208
     94  CG2       42.9920   74.7900   15.7020 C.3    50  THR50       0.0379
     95  N         43.0840   76.0740   19.2800 N.am   51  HIS51      -0.1973
     96  CA        44.2190   76.2790   20.1280 C.3    51  HIS51       0.1656
     97  C         44.2700   75.2130   21.2300 C.2    51  HIS51       0.2291
     98  O         45.3180   74.6180   21.4930 O.2    51  HIS51      -0.2864
     99  CB        44.1330   77.6680   20.7440 C.3    51  HIS51       0.0771
    100  CG        45.3170   78.0310   21.5750 C.ar   51  HIS51       0.0820
    101  ND1       46.0150   79.2060   21.3990 N.ar   51  HIS51      -0.2267
    102  CD2       45.9350   77.3710   22.5830 C.ar   51  HIS51       0.1154
    103  CE1       47.0050   79.2610   22.2730 C.ar   51  HIS51       0.1986
    104  NE2       46.9770   78.1600   23.0040 N.ar   51  HIS51      -0.2212
    105  N         36.2610   70.8660   14.3740 N.3   103  ASP103     -0.1239
    106  CA        35.1660   71.2870   13.4900 C.3   103  ASP103      0.1674
    107  C         34.1750   70.1840   13.0580 C.2   103  ASP103      0.2266
    108  O         33.7680   70.1180   11.8930 O.2   103  ASP103     -0.2867
    109  CB        35.7140   72.0140   12.2680 C.3   103  ASP103      0.1410
    110  CG        36.3850   73.3420   12.6260 C.2   103  ASP103      0.3668
    111  OD1       37.3650   73.7260   11.9310 O.co2 103  ASP103     -0.2456
    112  OD2       36.0180   74.0690   13.5820 O.co2 103  ASP103     -0.2456
    113  N         35.2940   83.4020   24.7640 N.3   163  LEU163     -0.1245
    114  CA        36.3780   84.3380   24.9170 C.3   163  LEU163      0.1561
    115  C         35.8250   85.5930   25.5740 C.2   163  LEU163      0.2260
    116  O         35.3250   86.4800   24.9000 O.2   163  LEU163     -0.2867
    117  CB        36.9750   84.6770   23.5750 C.3   163  LEU163      0.0270
    118  CG        38.3710   85.2860   23.6830 C.3   163  LEU163      0.0019
    119  CD1       39.3600   84.1810   23.9650 C.3   163  LEU163      0.0001
    120  CD2       38.7400   86.0090   22.4110 C.3   163  LEU163      0.0001
    121  N         39.5690   88.1890   29.2260 N.3   167  THR167     -0.1218
    122  CA        40.5220   87.4120   28.4480 C.3   167  THR167      0.1862
    123  C         41.0390   88.1610   27.2000 C.2   167  THR167      0.2287
    124  O         42.2470   88.2550   26.9940 O.2   167  THR167     -0.2866
    125  CB        39.9230   86.0350   28.1140 C.3   167  THR167      0.1770
    126  OG1       39.8050   85.2760   29.3240 O.3   167  THR167     -0.2211
    127  CG2       40.8740   85.2090   27.2870 C.3   167  THR167      0.0375
    128  N         44.8030   89.1750   26.1080 N.3   171  ILE171     -0.1245
    129  CA        45.3070   88.8420   24.7900 C.3   171  ILE171      0.1561
    130  C         45.7530   90.1300   24.0730 C.2   171  ILE171      0.2260
    131  O         46.8860   90.2440   23.5810 O.2   171  ILE171     -0.2867
    132  CB        44.2640   88.0670   23.9900 C.3   171  ILE171      0.0252
    133  CG1       44.1310   86.6530   24.5540 C.3   171  ILE171      0.0019
    134  CG2       44.6620   88.0000   22.5360 C.3   171  ILE171      0.0019
    135  CD1       43.0710   85.7940   23.8540 C.3   171  ILE171      0.0001
    136  N         49.0350   91.0950   25.0220 N.3   174  GLU174     -0.1231
    137  CA        50.0770   90.2490   24.4330 C.3   174  GLU174      0.1699
    138  C         50.3200   90.6510   22.9830 C.2   174  GLU174      0.2592
    139  O         51.4510   90.8330   22.5800 O.2   174  GLU174     -0.2718
    140  CB        49.7920   88.7300   24.5990 C.3   174  GLU174      0.0402
    141  CG        50.5460   88.0780   25.7780 C.3   174  GLU174      0.1161
    142  CD        50.0000   86.6930   26.2110 C.2   174  GLU174      0.3649
    143  OE1       49.6200   85.8610   25.3290 O.co2 174  GLU174     -0.2457
    144  OE2       49.9710   86.4200   27.4490 O.co2 174  GLU174     -0.2457
    145  N         49.2420   90.8540   22.2330 N.am  175  LYS175     -0.1980
    146  CA        49.3230   91.1930   20.8110 C.3   175  LYS175      0.1596
    147  C         50.0520   92.5060   20.5670 C.2   175  LYS175      0.2287
    148  O         50.8890   92.6170   19.6640 O.2   175  LYS175     -0.2864
    149  CB        47.9250   91.2450   20.1960 C.3   175  LYS175      0.0298
    150  CG        47.3090   89.8780   19.9810 C.3   175  LYS175      0.0038
    151  CD        48.2560   88.9960   19.2090 C.3   175  LYS175      0.0206
    152  CE        47.7540   87.5800   19.1190 C.3   175  LYS175      0.1093
    153  NZ        48.4770   86.8530   18.0580 N.3   175  LYS175     -0.1314
    154  N         37.5840   88.6730   18.2720 N.3   197  ASN197     -0.1225
    155  CA        38.4990   87.6300   17.8290 C.3   197  ASN197      0.1785
    156  C         39.9180   88.1290   17.9870 C.2   197  ASN197      0.2597
    157  O         40.1300   89.2920   18.2080 O.2   197  ASN197     -0.2718
    158  CB        38.3050   87.4270   16.3210 C.3   197  ASN197      0.1169
    159  CG        37.4920   86.2430   16.0020 C.2   197  ASN197      0.2627
    160  OD1       37.6270   85.2010   16.6420 O.2   197  ASN197     -0.2716
    161  ND2       36.6280   86.3610   14.9790 N.am  197  ASN197     -0.0877
    162  N         40.8870   87.2420   17.7970 N.am  198  VAL198     -0.1966
    163  CA        42.2590   87.6370   17.6470 C.3   198  VAL198      0.1727
    164  C         42.4450   88.0720   16.1860 C.2   198  VAL198      0.2616
    165  O         43.2970   88.9140   15.8760 O.2   198  VAL198     -0.2715
    166  CB        43.2170   86.4730   17.9600 C.3   198  VAL198      0.0290
    167  CG1       44.4250   86.4960   17.0370 C.3   198  VAL198      0.0023
    168  CG2       43.6640   86.5400   19.3910 C.3   198  VAL198      0.0023
    169  N         41.6450   87.4950   15.2930 N.am  199  ARG199     -0.1977
    170  CA        41.6840   87.8530   13.8820 C.3   199  ARG199      0.1597
    171  C         41.3640   89.3410   13.6960 C.2   199  ARG199      0.2287
    172  O         42.0070   90.0300   12.9210 O.2   199  ARG199     -0.2864
    173  CB        40.6970   87.0010   13.0780 C.3   199  ARG199      0.0334
    174  CG        40.9540   86.9900   11.5870 C.3   199  ARG199      0.0492
    175  CD        39.7820   86.4710   10.7340 C.3   199  ARG199      0.2205
    176  NE        39.6300   85.0050   10.7550 N.pl3 199  ARG199     -0.0865
    177  CZ        40.5850   84.1340   10.4100 C.cat 199  ARG199      0.5346
    178  NH1       41.7860   84.5640   10.0210 N.pl3 199  ARG199      0.1354
    179  NH2       40.3360   82.8300   10.4570 N.pl3 199  ARG199      0.1354
@<TRIPOS>BOND
     1   178   177    1
     2   177   179    1
     3   177   176    2
     4   175   176    1
     5   175   174    1
     6   174   173    1
     7   108   107    2
     8   111   110   ar
     9   109   110    1
    10   109   106    1
    11   110   112   ar
    12   172   171    2
    13   107   106    1
    14   173   170    1
    15   106   105    1
    16    63    61    1
    17   171   170    1
    18   170   169    1
    19    62    61    1
    20     9     8    1
    21    61    58    1
    22   161   159   am
    23    21    20    1
    24   169   164   am
    25     8     7    1
    26    93    92    1
    27    94    92    1
    28     7     6    1
    29   165   164    2
    30   159   158    1
    31   159   160    2
    32    58    57    1
    33    58    59    1
    34    19    20   ar
    35    19    17   ar
    36   164   163    1
    37    20    18   ar
    38   158   155    1
    39    92    89    1
    40    59    64   am
    41    59    60    2
    42    64    65    1
    43     6     5    1
    44   167   166    1
    45    17    15   ar
    46     5     2    1
    47    18    16   ar
    48    87    86    1
    49    65    66    1
    50   163   162    1
    51   163   166    1
    52    86    85    1
    53   162   156   am
    54   155   156    1
    55   155   154    1
    56    89    88    1
    57    89    90    1
    58     1     2    1
    59   166   168    1
    60   156   157    2
    61   153   152    1
    62     2     3    1
    63    88    81   am
    64    15    16   ar
    65    15    14    1
    66    90    91    2
    67    90    95   am
    68    66    68   am
    69    66    67    2
    70    85    84    1
    71   152   151    1
    72   151   150    1
    73    95    96    1
    74    83    84    1
    75    83    80    1
    76    10     3   am
    77    10    11    1
    78     3     4    2
    79    68    69    1
    80    81    82    2
    81    81    80    1
    82   148   147    2
    83    14    11    1
    84   150   149    1
    85    96    99    1
    86    96    97    1
    87   149   146    1
    88    80    79    1
    89    11    12    1
    90   147   146    1
    91    79    77   am
    92    99   100    1
    93   146   145    1
    94    69    72    1
    95    69    70    1
    96    72    73    1
    97    72    74    1
    98    75    76    1
    99    75    70   am
   100    97    98    2
   101    77    76    1
   102    77    78    2
   103   101   100   ar
   104   101   103   ar
   105    13    12    2
   106   100   102   ar
   107    70    71    2
   108   145   138   am
   109   103   104   ar
   110   120   118    1
   111   134   132    1
   112   139   138    2
   113   102   104   ar
   114   138   137    1
   115    28    27    2
   116   117   118    1
   117   117   114    1
   118   131   130    2
   119    29    27   am
   120   118   119    1
   121   135   133    1
   122    27    26    1
   123   132   133    1
   124   132   129    1
   125   130   129    1
   126   137   140    1
   127   137   136    1
   128   140   141    1
   129   113   114    1
   130   129   128    1
   131   116   115    2
   132   114   115    1
   133    26    23    1
   134    38    36   ar
   135    38    40   ar
   136    36    35   ar
   137   143   142   ar
   138    25    24    2
   139   141   142    1
   140    24    23    1
   141    24    30   am
   142    40    39   ar
   143   142   144   ar
   144    23    22    1
   145    35    34    1
   146    35    37   ar
   147    30    31    1
   148    31    34    1
   149    31    32    1
   150   124   123    2
   151   123   122    1
   152   127   125    1
   153    48    46    1
   154    39    37   ar
   155    41    32   am
   156    41    42    1
   157    46    45    1
   158    55    54    2
   159    32    33    2
   160    53    54    1
   161    53    50    1
   162   125   122    1
   163   125   126    1
   164    45    42    1
   165    45    47    1
   166   122   121    1
   167    44    43    2
   168    54    56   am
   169    42    43    1
   170    50    49    1
   171    50    51    1
   172    52    51    2
