@<TRIPOS>MOLECULE
tmp/1l8tA01.pdb
 197 189 0 0 0
SMALL
GASTEIGER

@<TRIPOS>ATOM
      1  N         60.5600   11.7430 -270.5490 N.3    25  MET25      -0.1230
      2  CA        59.1760   12.1850 -270.4990 C.3    25  MET25       0.1702
      3  C         58.2360   11.1130 -271.0280 C.2    25  MET25       0.2593
      4  O         57.0190   11.3020 -271.0660 O.2    25  MET25      -0.2718
      5  CB        59.0130   13.4560 -271.3240 C.3    25  MET25       0.0401
      6  CG        59.6770   14.6720 -270.7160 C.3    25  MET25       0.0596
      7  SD        60.0750   15.9010 -271.9700 S.3    25  MET25      -0.1393
      8  CE        58.4060   16.5100 -272.4220 C.3    25  MET25       0.0692
      9  N         58.7960    9.9860 -271.4430 N.am   26  SER26      -0.1939
     10  CA        57.9730    8.9160 -271.9720 C.3    26  SER26       0.2040
     11  C         57.2860    8.1850 -270.8320 C.2    26  SER26       0.2485
     12  O         57.4830    8.5080 -269.6630 O.2    26  SER26      -0.2729
     13  CB        58.8280    7.9250 -272.7630 C.3    26  SER26       0.2129
     14  OG        59.6120    7.1260 -271.8960 O.3    26  SER26      -0.2179
     15  N         56.4450    7.1990 -271.1660 N.am   27  PRO27      -0.2726
     16  CA        55.7500    6.4380 -270.1270 C.3    27  PRO27       0.1402
     17  C         56.7200    5.4210 -269.5090 C.2    27  PRO27       0.2269
     18  O         56.4150    4.7810 -268.5080 O.2    27  PRO27      -0.2865
     19  CB        54.6230    5.7460 -270.8980 C.3    27  PRO27       0.0296
     20  CG        54.4380    6.6090 -272.1200 C.3    27  PRO27       0.0237
     21  CD        55.8450    6.9410 -272.4880 C.3    27  PRO27       0.0939
     22  N         56.5290    2.4380 -278.1010 N.3    54  TYR54      -0.1241
     23  CA        57.0070    2.7800 -276.7720 C.3    54  TYR54       0.1605
     24  C         57.5660    1.5360 -276.0750 C.2    54  TYR54       0.2264
     25  O         58.4450    1.6310 -275.2140 O.2    54  TYR54      -0.2867
     26  CB        55.8760    3.3310 -275.9070 C.3    54  TYR54       0.0534
     27  CG        55.3330    4.6700 -276.3250 C.ar   54  TYR54      -0.0201
     28  CD1       54.0940    4.7810 -276.9530 C.ar   54  TYR54      -0.0009
     29  CD2       56.0400    5.8360 -276.0570 C.ar   54  TYR54      -0.0009
     30  CE1       53.5740    6.0290 -277.2980 C.ar   54  TYR54       0.0417
     31  CE2       55.5340    7.0810 -276.4010 C.ar   54  TYR54       0.0417
     32  CZ        54.3050    7.1760 -277.0160 C.ar   54  TYR54       0.1957
     33  OH        53.8160    8.4190 -277.3390 O.3    54  TYR54      -0.2866
     34  N         48.6450   11.8690 -273.9690 N.3   152  ASP152     -0.1239
     35  CA        48.3320   13.0600 -273.2010 C.3   152  ASP152      0.1674
     36  C         47.8510   14.1140 -274.1950 C.2   152  ASP152      0.2266
     37  O         48.6370   14.7410 -274.9110 O.2   152  ASP152     -0.2867
     38  CB        49.5570   13.5620 -272.4350 C.3   152  ASP152      0.1410
     39  CG        49.2360   14.7600 -271.5540 C.2   152  ASP152      0.3668
     40  OD1       50.0630   15.1220 -270.6970 O.co2 152  ASP152     -0.2456
     41  OD2       48.1540   15.3500 -271.7190 O.co2 152  ASP152     -0.2456
     42  N         50.4360   18.3760 -272.7250 N.3   156  GLU156     -0.1231
     43  CA        51.7130   18.1340 -273.4040 C.3   156  GLU156      0.1699
     44  C         52.3310   19.4900 -273.7820 C.2   156  GLU156      0.2592
     45  O         51.6370   20.5080 -273.7950 O.2   156  GLU156     -0.2718
     46  CB        51.4780   17.2920 -274.6630 C.3   156  GLU156      0.0402
     47  CG        52.7060   17.0270 -275.5490 C.3   156  GLU156      0.1161
     48  CD        53.6100   15.9120 -275.0300 C.2   156  GLU156      0.3649
     49  OE1       53.0790   14.9110 -274.4970 O.co2 156  GLU156     -0.2457
     50  OE2       54.8480   16.0250 -275.1750 O.co2 156  GLU156     -0.2457
     51  N         53.6310   19.5100 -274.0690 N.am  157  ASN157     -0.1960
     52  CA        54.3270   20.7490 -274.4470 C.3   157  ASN157      0.1819
     53  C         54.2720   20.9010 -275.9650 C.2   157  ASN157      0.2621
     54  O         55.2010   20.5220 -276.6780 O.2   157  ASN157     -0.2715
     55  CB        55.7900   20.7090 -273.9850 C.3   157  ASN157      0.1195
     56  CG        56.6080   21.9130 -274.4690 C.2   157  ASN157      0.2630
     57  OD1       57.8330   21.8320 -274.5900 O.2   157  ASN157     -0.2716
     58  ND2       55.9400   23.0300 -274.7280 N.am  157  ASN157     -0.0877
     59  N         53.1730   21.4700 -276.4450 N.am  158  TRP158     -0.1960
     60  CA        52.9520   21.6590 -277.8710 C.3   158  TRP158      0.1771
     61  C         53.7010   22.8350 -278.4840 C.2   158  TRP158      0.2619
     62  O         54.0650   23.7850 -277.7890 O.2   158  TRP158     -0.2715
     63  CB        51.4540   21.8320 -278.1390 C.3   158  TRP158      0.0590
     64  CG        50.6270   20.6570 -277.7340 C.ar  158  TRP158      0.0006
     65  CD1       50.7280   19.3710 -278.2020 C.ar  158  TRP158      0.0946
     66  CD2       49.5750   20.6500 -276.7700 C.ar  158  TRP158      0.0152
     67  NE1       49.8010   18.5640 -277.5800 N.ar  158  TRP158     -0.2442
     68  CE2       49.0800   19.3250 -276.6960 C.ar  158  TRP158      0.0810
     69  CE3       48.9990   21.6330 -275.9590 C.ar  158  TRP158      0.0012
     70  CZ2       48.0390   18.9630 -275.8420 C.ar  158  TRP158      0.0191
     71  CZ3       47.9630   21.2730 -275.1090 C.ar  158  TRP158      0.0001
     72  CH2       47.4940   19.9470 -275.0570 C.ar  158  TRP158      0.0015
     73  N         53.9190   22.7530 -279.7960 N.am  159  GLU159     -0.1977
     74  CA        54.5850   23.8080 -280.5450 C.3   159  GLU159      0.1602
     75  C         53.6570   25.0210 -280.5620 C.2   159  GLU159      0.2287
     76  O         52.4440   24.8840 -280.6690 O.2   159  GLU159     -0.2864
     77  CB        54.8560   23.3630 -281.9850 C.3   159  GLU159      0.0415
     78  CG        55.7590   22.1490 -282.1350 C.3   159  GLU159      0.1163
     79  CD        57.1420   22.3700 -281.5590 C.2   159  GLU159      0.3649
     80  OE1       57.8090   23.3510 -281.9550 O.co2 159  GLU159     -0.2457
     81  OE2       57.5630   21.5590 -280.7090 O.co2 159  GLU159     -0.2457
     82  N         63.1280    9.6590 -282.6270 N.3   189  ASP189     -0.1239
     83  CA        63.0560   10.7450 -281.6530 C.3   189  ASP189      0.1674
     84  C         64.4450   11.3420 -281.4900 C.2   189  ASP189      0.2266
     85  O         65.0680   11.2680 -280.4330 O.2   189  ASP189     -0.2867
     86  CB        62.5210   10.2140 -280.3220 C.3   189  ASP189      0.1410
     87  CG        62.3040   11.3130 -279.2980 C.2   189  ASP189      0.3668
     88  OD1       62.1790   12.5030 -279.6840 O.co2 189  ASP189     -0.2456
     89  OD2       62.2500   10.9750 -278.0950 O.co2 189  ASP189     -0.2456
     90  N         68.7340   16.1250 -278.5250 N.3   192  ASP192     -0.1239
     91  CA        69.9300   16.1490 -277.6830 C.3   192  ASP192      0.1674
     92  C         69.8000   15.3750 -276.3590 C.2   192  ASP192      0.2266
     93  O         70.7250   15.3450 -275.5400 O.2   192  ASP192     -0.2867
     94  CB        70.3310   17.5940 -277.3970 C.3   192  ASP192      0.1410
     95  CG        69.2630   18.3660 -276.6380 C.2   192  ASP192      0.3668
     96  OD1       68.3910   17.7370 -275.9870 O.co2 192  ASP192     -0.2456
     97  OD2       69.3090   19.6140 -276.6800 O.co2 192  ASP192     -0.2456
     98  N         68.7070   12.1050 -276.4930 N.3   194  ASN194     -0.1240
     99  CA        68.8950   10.7070 -276.8700 C.3   194  ASN194      0.1653
    100  C         70.1880   10.4590 -277.6460 C.2   194  ASN194      0.2266
    101  O         70.4300    9.3410 -278.1070 O.2   194  ASN194     -0.2867
    102  CB        67.6960   10.2280 -277.7050 C.3   194  ASN194      0.1155
    103  CG        66.3680   10.4490 -276.9990 C.2   194  ASN194      0.2627
    104  OD1       66.2100   10.1020 -275.8340 O.2   194  ASN194     -0.2716
    105  ND2       65.4120   11.0260 -277.7020 N.am  194  ASN194     -0.0877
    106  N         67.0530    5.3670 -276.7380 N.3   207  ASP207     -0.1239
    107  CA        65.6370    5.6190 -276.9840 C.3   207  ASP207      0.1674
    108  C         65.3590    5.1390 -278.4080 C.2   207  ASP207      0.2266
    109  O         65.2460    5.9530 -279.3240 O.2   207  ASP207     -0.2867
    110  CB        65.3780    7.1260 -276.8690 C.3   207  ASP207      0.1410
    111  CG        64.0630    7.4580 -276.1920 C.2   207  ASP207      0.3668
    112  OD1       63.1130    6.6440 -276.2410 O.co2 207  ASP207     -0.2456
    113  OD2       63.9710    8.5640 -275.6270 O.co2 207  ASP207     -0.2456
    114  N         61.1720    3.6380 -281.2530 N.3   210  ARG210     -0.1245
    115  CA        60.5420    4.2060 -282.4370 C.3   210  ARG210      0.1563
    116  C         61.4140    4.1250 -283.6860 C.2   210  ARG210      0.2260
    117  O         61.0630    4.6990 -284.7170 O.2   210  ARG210     -0.2867
    118  CB        60.1970    5.6730 -282.1660 C.3   210  ARG210      0.0307
    119  CG        58.9970    6.1920 -282.9250 C.3   210  ARG210      0.0489
    120  CD        58.6940    7.6330 -282.5070 C.3   210  ARG210      0.2205
    121  NE        58.3990    7.7930 -281.0770 N.pl3 210  ARG210     -0.0865
    122  CZ        57.4140    7.1690 -280.4320 C.cat 210  ARG210      0.5346
    123  NH1       56.6230    6.3370 -281.0830 N.pl3 210  ARG210      0.1354
    124  NH2       57.2120    7.3710 -279.1350 N.pl3 210  ARG210      0.1354
    125  N         63.3710   21.3680 -285.6450 N.3   225  ARG225     -0.1231
    126  CA        62.5540   21.7440 -284.5000 C.3   225  ARG225      0.1694
    127  C         63.4110   22.1230 -283.2960 C.2   225  ARG225      0.2592
    128  O         63.1850   23.1610 -282.6840 O.2   225  ARG225     -0.2718
    129  CB        61.5940   20.6020 -284.1350 C.3   225  ARG225      0.0321
    130  CG        60.5360   20.9930 -283.1120 C.3   225  ARG225      0.0489
    131  CD        59.7220   19.7950 -282.6560 C.3   225  ARG225      0.2205
    132  NE        60.5520   18.7520 -282.0620 N.pl3 225  ARG225     -0.0865
    133  CZ        60.0840   17.5960 -281.6010 C.cat 225  ARG225      0.5346
    134  NH1       60.9080   16.7020 -281.0820 N.pl3 225  ARG225      0.1354
    135  NH2       58.7860   17.3340 -281.6490 N.pl3 225  ARG225      0.1354
    136  N         64.3890   21.2860 -282.9510 N.am  226  SER226     -0.1952
    137  CA        65.2730   21.5920 -281.8270 C.3   226  SER226      0.1924
    138  C         66.0030   22.8870 -282.1410 C.2   226  SER226      0.2314
    139  O         65.9380   23.8610 -281.3930 O.2   226  SER226     -0.2863
    140  CB        66.3210   20.4980 -281.6220 C.3   226  SER226      0.2116
    141  OG        65.7350   19.2730 -281.2570 O.3   226  SER226     -0.2180
    142  N         65.5370   25.4500 -284.2000 N.3   228  ARG228     -0.1231
    143  CA        64.8040   26.7030 -284.1010 C.3   228  ARG228      0.1694
    144  C         64.4320   27.1300 -282.6780 C.2   228  ARG228      0.2592
    145  O         64.2870   28.3220 -282.4110 O.2   228  ARG228     -0.2718
    146  CB        63.5700   26.7060 -285.0200 C.3   228  ARG228      0.0321
    147  CG        62.4200   25.7670 -284.6940 C.3   228  ARG228      0.0489
    148  CD        61.2910   26.0370 -285.7040 C.3   228  ARG228      0.2205
    149  NE        60.1490   25.1190 -285.6500 N.pl3 228  ARG228     -0.0865
    150  CZ        59.2090   25.1260 -284.7090 C.cat 228  ARG228      0.5346
    151  NH1       59.2650   26.0050 -283.7130 N.pl3 228  ARG228      0.1354
    152  NH2       58.1920   24.2740 -284.7820 N.pl3 228  ARG228      0.1354
    153  N         64.3080   26.1860 -281.7520 N.am  229  GLU229     -0.1966
    154  CA        63.9650   26.5780 -280.3930 C.3   229  GLU229      0.1733
    155  C         65.1810   26.7870 -279.4990 C.2   229  GLU229      0.2616
    156  O         65.1960   27.6980 -278.6760 O.2   229  GLU229     -0.2715
    157  CB        63.0440   25.5550 -279.7150 C.3   229  GLU229      0.0429
    158  CG        62.5230   26.0820 -278.3670 C.3   229  GLU229      0.1163
    159  CD        62.1550   24.9930 -277.3740 C.2   229  GLU229      0.3649
    160  OE1       62.9180   24.0090 -277.2700 O.co2 229  GLU229     -0.2457
    161  OE2       61.1200   25.1280 -276.6820 O.co2 229  GLU229     -0.2457
    162  N         66.1940   25.9400 -279.6600 N.am  230  ASP230     -0.1971
    163  CA        67.4040   26.0040 -278.8380 C.3   230  ASP230      0.1709
    164  C         68.4670   27.0060 -279.2850 C.2   230  ASP230      0.2293
    165  O         69.4540   27.2010 -278.5770 O.2   230  ASP230     -0.2864
    166  CB        68.0390   24.6100 -278.7360 C.3   230  ASP230      0.1436
    167  CG        67.1170   23.5890 -278.0770 C.2   230  ASP230      0.3671
    168  OD1       67.4300   22.3790 -278.1160 O.co2 230  ASP230     -0.2456
    169  OD2       66.0760   23.9940 -277.5150 O.co2 230  ASP230     -0.2456
    170  N         54.5960   14.3770 -284.4450 N.3   260  ASP260     -0.1225
    171  CA        55.1490   14.0590 -283.1290 C.3   260  ASP260      0.1805
    172  C         54.3740   14.6650 -281.9770 C.2   260  ASP260      0.2597
    173  O         54.5140   14.2480 -280.8280 O.2   260  ASP260     -0.2718
    174  CB        56.6060   14.5240 -283.0580 C.3   260  ASP260      0.1424
    175  CG        57.3290   13.9840 -281.8500 C.2   260  ASP260      0.3668
    176  OD1       57.3020   12.7510 -281.6540 O.co2 260  ASP260     -0.2456
    177  OD2       57.9290   14.7900 -281.1010 O.co2 260  ASP260     -0.2456
    178  N         53.5400   15.6400 -282.2990 N.am  261  GLU261     -0.1979
    179  CA        52.7560   16.3500 -281.3090 C.3   261  GLU261      0.1602
    180  C         52.0090   15.4780 -280.2940 C.2   261  GLU261      0.2287
    181  O         52.1200   15.7100 -279.0930 O.2   261  GLU261     -0.2864
    182  CB        51.8020   17.2850 -282.0340 C.3   261  GLU261      0.0415
    183  CG        51.6600   18.6510 -281.4090 C.3   261  GLU261      0.1163
    184  CD        52.9810   19.3430 -281.1680 C.2   261  GLU261      0.3649
    185  OE1       52.9670   20.5810 -281.0310 O.co2 261  GLU261     -0.2457
    186  OE2       54.0250   18.6670 -281.0990 O.co2 261  GLU261     -0.2457
    187  N         52.5810   12.2670 -279.5600 N.3   263  PHE263     -0.1241
    188  CA        53.3280   11.1340 -279.0090 C.3   263  PHE263      0.1605
    189  C         54.1070   11.4910 -277.7430 C.2   263  PHE263      0.2264
    190  O         54.6720   10.5530 -277.1370 O.2   263  PHE263     -0.2867
    191  CB        54.2910   10.5350 -280.0470 C.3   263  PHE263      0.0534
    192  CG        53.6080    9.7280 -281.1190 C.ar  263  PHE263     -0.0203
    193  CD1       53.1630   10.3330 -282.2970 C.ar  263  PHE263     -0.0042
    194  CD2       53.3860    8.3650 -280.9450 C.ar  263  PHE263     -0.0042
    195  CE1       52.5110    9.5900 -283.2800 C.ar  263  PHE263     -0.0003
    196  CE2       52.7310    7.6160 -281.9280 C.ar  263  PHE263     -0.0003
    197  CZ        52.2950    8.2340 -283.0940 C.ar  263  PHE263     -0.0000
@<TRIPOS>BOND
     1   148   149    1
     2   148   147    1
     3   149   150    2
     4   125   126    1
     5   146   147    1
     6   146   143    1
     7   152   150    1
     8   117   116    2
     9   150   151    1
    10   126   129    1
    11   126   127    1
    12   170   171    1
    13   142   143    1
    14   129   130    1
    15   143   144    1
    16   116   115    1
    17   127   136   am
    18   127   128    2
    19   195   197   ar
    20   195   193   ar
    21   171   174    1
    22   171   172    1
    23   130   131    1
    24   197   196   ar
    25   174   175    1
    26   136   137    1
    27   119   120    1
    28   119   118    1
    29   144   145    2
    30   144   153   am
    31   131   132    1
    32    82    83    1
    33   120   121    1
    34   115   118    1
    35   115   114    1
    36   178   172   am
    37   178   179    1
    38   193   192   ar
    39   138   137    1
    40   138   139    2
    41    78    77    1
    42    78    79    1
    43   132   133    2
    44   182   183    1
    45   182   179    1
    46    77    74    1
    47   172   173    2
    48    80    79   ar
    49   196   194   ar
    50   175   176   ar
    51   175   177   ar
    52   137   140    1
    53   153   154    1
    54    83    84    1
    55    83    86    1
    56   135   133    1
    57   140   141    1
    58   133   134    1
    59    79    81   ar
    60    84    85    2
    61   183   184    1
    62   179   180    1
    63   184   186   ar
    64   184   185   ar
    65   192   194   ar
    66   192   191    1
    67   123   122    1
    68   121   122    2
    69    76    75    2
    70    75    74    1
    71    74    73    1
    72   122   124    1
    73   154   157    1
    74   154   155    1
    75    86    87    1
    76   180   181    2
    77   191   188    1
    78    73    61   am
    79   157   158    1
    80    88    87   ar
    81   162   155   am
    82   162   163    1
    83   187   188    1
    84   155   156    2
    85   109   108    2
    86    87    89   ar
    87   164   163    1
    88   164   165    2
    89   188   189    1
    90   163   166    1
    91   166   167    1
    92    90    91    1
    93    61    60    1
    94    61    62    2
    95   108   107    1
    96   158   159    1
    97    65    64   ar
    98    65    67   ar
    99    63    60    1
   100    63    64    1
   101   168   167   ar
   102   101   100    2
   103    22    23    1
   104   167   169   ar
   105    60    59    1
   106   189   190    2
   107    64    66   ar
   108   102   103    1
   109   102    99    1
   110   105   103   am
   111    91    94    1
   112    91    92    1
   113   100    99    1
   114    67    68   ar
   115    94    95    1
   116   159   160   ar
   117   159   161   ar
   118    33    32    1
   119    30    32   ar
   120    30    28   ar
   121    32    31   ar
   122   103   104    2
   123   107   110    1
   124   107   106    1
   125    28    27   ar
   126    99    98    1
   127   110   111    1
   128    23    24    1
   129    23    26    1
   130    66    68   ar
   131    66    69   ar
   132    68    70   ar
   133    97    95   ar
   134    54    53    2
   135    95    96   ar
   136    59    53   am
   137    31    29   ar
   138    92    93    2
   139    27    29   ar
   140    27    26    1
   141   112   111   ar
   142   111   113   ar
   143    24    25    2
   144    53    52    1
   145    69    71   ar
   146    70    72   ar
   147    47    48    1
   148    47    46    1
   149    50    48   ar
   150    71    72   ar
   151    48    49   ar
   152    37    36    2
   153    58    56   am
   154    46    43    1
   155    57    56    2
   156    56    55    1
   157    52    51    1
   158    52    55    1
   159    36    35    1
   160    51    44   am
   161    34    35    1
   162    45    44    2
   163    44    43    1
   164    43    42    1
   165    35    38    1
   166    13    10    1
   167    13    14    1
   168    21    20    1
   169    21    15    1
   170    38    39    1
   171     8     7    1
   172    20    19    1
   173    10     9    1
   174    10    11    1
   175     7     6    1
   176    41    39   ar
   177    39    40   ar
   178     9     3   am
   179     5     6    1
   180     5     2    1
   181    15    11   am
   182    15    16    1
   183     4     3    2
   184     3     2    1
   185    19    16    1
   186    11    12    2
   187     1     2    1
   188    16    17    1
   189    17    18    2
