@<TRIPOS>MOLECULE
tmp/1l9dB01.pdb
 104 99 0 0 0
SMALL
GASTEIGER

@<TRIPOS>ATOM
      1  N         53.4270   33.9990   21.6650 N.3    49  ARG49      -0.1231
      2  CA        53.8580   35.0070   22.6260 C.3    49  ARG49       0.1694
      3  C         52.9240   36.2130   22.5610 C.2    49  ARG49       0.2591
      4  O         52.4800   36.6120   21.4860 O.2    49  ARG49      -0.2718
      5  CB        55.2900   35.4530   22.3070 C.3    49  ARG49       0.0321
      6  CG        56.3570   34.3760   22.5230 C.3    49  ARG49       0.0489
      7  CD        56.5990   34.1860   24.0000 C.3    49  ARG49       0.2205
      8  NE        57.6490   33.2280   24.3370 N.pl3  49  ARG49      -0.0865
      9  CZ        57.5210   31.9100   24.2440 C.cat  49  ARG49       0.5346
     10  NH1       56.3780   31.3800   23.8210 N.pl3  49  ARG49       0.1354
     11  NH2       58.5380   31.1210   24.5700 N.pl3  49  ARG49       0.1354
     12  N         52.6300   36.7930   23.7150 N.am   50  ILE50      -0.1980
     13  CA        51.7670   37.9620   23.7840 C.3    50  ILE50       0.1595
     14  C         52.5590   39.2580   23.6270 C.2    50  ILE50       0.2287
     15  O         53.6620   39.3870   24.1530 O.2    50  ILE50      -0.2864
     16  CB        51.0370   38.0380   25.1480 C.3    50  ILE50       0.0276
     17  CG1       49.9070   37.0120   25.1980 C.3    50  ILE50       0.0022
     18  CG2       50.4980   39.4440   25.3850 C.3    50  ILE50       0.0022
     19  CD1       49.1520   37.0120   26.5050 C.3    50  ILE50       0.0001
     20  N         51.9300   43.3310   24.1940 N.3    52  ARG52      -0.1245
     21  CA        51.0310   44.3270   24.7680 C.3    52  ARG52       0.1563
     22  C         51.7050   45.6770   24.5730 C.2    52  ARG52       0.2260
     23  O         52.9210   45.7400   24.4040 O.2    52  ARG52      -0.2867
     24  CB        50.8570   44.0840   26.2740 C.3    52  ARG52       0.0307
     25  CG        50.0770   42.8480   26.6610 C.3    52  ARG52       0.0489
     26  CD        50.2620   42.5480   28.1460 C.3    52  ARG52       0.2205
     27  NE        51.5870   41.9920   28.4290 N.pl3  52  ARG52      -0.0865
     28  CZ        52.4260   42.4670   29.3440 C.cat  52  ARG52       0.5346
     29  NH1       52.0880   43.5200   30.0800 N.pl3  52  ARG52       0.1354
     30  NH2       53.6040   41.8860   29.5240 N.pl3  52  ARG52       0.1354
     31  N         46.3860   38.4800   30.2400 N.3   245  MET245     -0.1245
     32  CA        47.3620   38.4630   31.3200 C.3   245  MET245      0.1570
     33  C         46.6050   39.0810   32.4800 C.2   245  MET245      0.2261
     34  O         46.2470   40.2620   32.4440 O.2   245  MET245     -0.2867
     35  CB        48.6020   39.2950   30.9970 C.3   245  MET245      0.0387
     36  CG        49.6660   39.1600   32.0720 C.3   245  MET245      0.0595
     37  SD        51.2840   39.7400   31.5770 S.3   245  MET245     -0.1393
     38  CE        52.0350   40.0760   33.1590 C.3   245  MET245      0.0692
     39  N         48.5640   33.9760   32.3390 N.3   254  TYR254     -0.1241
     40  CA        48.4830   34.5000   30.9870 C.3   254  TYR254      0.1605
     41  C         47.9660   33.4090   30.0730 C.2   254  TYR254      0.2264
     42  O         48.1500   32.2260   30.3430 O.2   254  TYR254     -0.2867
     43  CB        49.8500   34.9830   30.5000 C.3   254  TYR254      0.0534
     44  CG        50.9180   33.9220   30.5180 C.ar  254  TYR254     -0.0201
     45  CD1       51.6180   33.6340   31.6870 C.ar  254  TYR254     -0.0009
     46  CD2       51.2460   33.2120   29.3590 C.ar  254  TYR254     -0.0009
     47  CE1       52.6250   32.6710   31.7040 C.ar  254  TYR254      0.0417
     48  CE2       52.2520   32.2430   29.3670 C.ar  254  TYR254      0.0417
     49  CZ        52.9390   31.9820   30.5440 C.ar  254  TYR254      0.1957
     50  OH        53.9560   31.0560   30.5630 O.3   254  TYR254     -0.2866
     51  N         46.1940   32.3870   25.8070 N.3   256  PHE256     -0.1241
     52  CA        45.9430   32.6580   24.4030 C.3   256  PHE256      0.1605
     53  C         44.6750   31.9450   23.9600 C.2   256  PHE256      0.2264
     54  O         44.3560   30.8640   24.4590 O.2   256  PHE256     -0.2867
     55  CB        47.1000   32.1160   23.5630 C.3   256  PHE256      0.0534
     56  CG        48.4410   32.6680   23.9370 C.ar  256  PHE256     -0.0203
     57  CD1       49.0560   33.6310   23.1360 C.ar  256  PHE256     -0.0042
     58  CD2       49.1010   32.2200   25.0760 C.ar  256  PHE256     -0.0042
     59  CE1       50.3080   34.1380   23.4630 C.ar  256  PHE256     -0.0003
     60  CE2       50.3580   32.7230   25.4180 C.ar  256  PHE256     -0.0003
     61  CZ        50.9630   33.6830   24.6070 C.ar  256  PHE256     -0.0000
     62  N         52.5630   32.6050   35.6090 N.3   269  ASN269     -0.1240
     63  CA        53.7660   33.4290   35.6210 C.3   269  ASN269      0.1653
     64  C         54.4110   33.6910   36.9800 C.2   269  ASN269      0.2266
     65  O         55.6340   33.8050   37.0770 O.2   269  ASN269     -0.2867
     66  CB        53.4390   34.7530   34.9180 C.3   269  ASN269      0.1155
     67  CG        54.5690   35.7490   34.9740 C.2   269  ASN269      0.2627
     68  OD1       54.6930   36.5100   35.9330 O.2   269  ASN269     -0.2716
     69  ND2       55.4050   35.7530   33.9430 N.am  269  ASN269     -0.0877
     70  N         62.5920   31.4480   32.0160 N.3   317  TYR317     -0.1241
     71  CA        62.6250   32.8990   32.2060 C.3   317  TYR317      0.1605
     72  C         64.0410   33.1050   32.7480 C.2   317  TYR317      0.2264
     73  O         64.6440   32.1670   33.2600 O.2   317  TYR317     -0.2867
     74  CB        61.6740   33.3810   33.3120 C.3   317  TYR317      0.0534
     75  CG        60.1860   33.4020   33.0310 C.ar  317  TYR317     -0.0201
     76  CD1       59.6630   33.0480   31.7900 C.ar  317  TYR317     -0.0009
     77  CD2       59.2930   33.7710   34.0380 C.ar  317  TYR317     -0.0009
     78  CE1       58.2780   33.0620   31.5670 C.ar  317  TYR317      0.0417
     79  CE2       57.9180   33.7870   33.8250 C.ar  317  TYR317      0.0417
     80  CZ        57.4170   33.4310   32.5910 C.ar  317  TYR317      0.1957
     81  OH        56.0560   33.4380   32.3940 O.3   317  TYR317     -0.2866
     82  N         61.2350   36.9620   31.6820 N.3   344  GLY344     -0.1210
     83  CA        59.9400   36.4440   31.2750 C.3   344  GLY344      0.1956
     84  C         59.0030   37.3240   30.4620 C.2   344  GLY344      0.2611
     85  O         57.8980   36.8960   30.1750 O.2   344  GLY344     -0.2717
     86  N         59.4020   38.5350   30.0830 N.am  345  HIS345     -0.1975
     87  CA        58.4990   39.3790   29.2920 C.3   345  HIS345      0.1656
     88  C         59.1900   40.1380   28.1540 C.2   345  HIS345      0.2291
     89  O         58.7750   41.2390   27.7780 O.2   345  HIS345     -0.2864
     90  CB        57.7450   40.3590   30.2160 C.3   345  HIS345      0.0771
     91  CG        58.6310   41.2930   30.9880 C.ar  345  HIS345      0.0820
     92  ND1       58.7690   42.6260   30.6660 N.ar  345  HIS345     -0.2267
     93  CD2       59.4180   41.0860   32.0720 C.ar  345  HIS345      0.1154
     94  CE1       59.6040   43.2000   31.5150 C.ar  345  HIS345      0.1986
     95  NE2       60.0130   42.2860   32.3780 N.ar  345  HIS345     -0.2212
     96  N         58.0960   40.1010   22.9980 N.3   348  LYS348     -0.1245
     97  CA        57.3570   41.1220   22.2670 C.3   348  LYS348      0.1561
     98  C         58.2800   42.2520   21.8240 C.2   348  LYS348      0.2260
     99  O         58.0450   42.8820   20.7940 O.2   348  LYS348     -0.2867
    100  CB        56.2210   41.6880   23.1380 C.3   348  LYS348      0.0271
    101  CG        56.6940   42.4770   24.3550 C.3   348  LYS348      0.0035
    102  CD        55.5330   42.9300   25.2370 C.3   348  LYS348      0.0206
    103  CE        54.9990   41.8020   26.1060 C.3   348  LYS348      0.1093
    104  NZ        55.9960   41.3840   27.1290 N.3   348  LYS348     -0.1314
@<TRIPOS>BOND
     1    99    98    2
     2     4     3    2
     3     1     2    1
     4    98    97    1
     5    97    96    1
     6    97   100    1
     7     5     6    1
     8     5     2    1
     9     6     7    1
    10     3     2    1
    11     3    12   am
    12    57    59   ar
    13    57    56   ar
    14   100   101    1
    15    59    61   ar
    16    55    56    1
    17    55    52    1
    18    14    13    1
    19    14    15    2
    20    12    13    1
    21    13    16    1
    22    10     9    1
    23    56    58   ar
    24    53    52    1
    25    53    54    2
    26     7     8    1
    27    20    21    1
    28     9     8    2
    29     9    11    1
    30   101   102    1
    31    52    51    1
    32    23    22    2
    33    22    21    1
    34    61    60   ar
    35    21    24    1
    36    58    60   ar
    37    16    17    1
    38    16    18    1
    39    17    19    1
    40   102   103    1
    41   103   104    1
    42    24    25    1
    43    25    26    1
    44    89    88    2
    45    26    27    1
    46    88    87    1
    47    27    28    2
    48    87    86    1
    49    87    90    1
    50    28    30    1
    51    28    29    1
    52    46    48   ar
    53    46    44   ar
    54    48    49   ar
    55    41    42    2
    56    41    40    1
    57    86    84   am
    58    85    84    2
    59    90    91    1
    60    31    32    1
    61    84    83    1
    62    43    44    1
    63    43    40    1
    64    44    45   ar
    65    49    50    1
    66    49    47   ar
    67    92    91   ar
    68    92    94   ar
    69    40    39    1
    70    91    93   ar
    71    35    32    1
    72    35    36    1
    73    83    82    1
    74    32    33    1
    75    94    95   ar
    76    78    76   ar
    77    78    80   ar
    78    37    36    1
    79    37    38    1
    80    45    47   ar
    81    76    75   ar
    82    70    71    1
    83    93    95   ar
    84    71    72    1
    85    71    74    1
    86    81    80    1
    87    34    33    2
    88    80    79   ar
    89    72    73    2
    90    75    74    1
    91    75    77   ar
    92    79    77   ar
    93    69    67   am
    94    66    67    1
    95    66    63    1
    96    67    68    2
    97    62    63    1
    98    63    64    1
    99    64    65    2
