@<TRIPOS>MOLECULE
tmp/1l9hA10.pdb
 157 149 0 0 0
SMALL
GASTEIGER

@<TRIPOS>ATOM
      1  N         81.4670   21.0110   -3.2120 N.3    66  LYS66      -0.1231
      2  CA        81.5850   22.2950   -2.5090 C.3    66  LYS66       0.1693
      3  C         80.6380   23.4420   -2.9110 C.2    66  LYS66       0.2591
      4  O         80.7420   24.5180   -2.3310 O.2    66  LYS66      -0.2718
      5  CB        83.0440   22.7630   -2.5650 C.3    66  LYS66       0.0285
      6  CG        83.9650   22.0700   -1.5450 C.3    66  LYS66       0.0035
      7  CD        84.2050   20.5970   -1.8680 C.3    66  LYS66       0.0206
      8  CE        84.9940   19.8970   -0.7520 C.3    66  LYS66       0.1093
      9  NZ        85.4740   18.5140   -1.1150 N.3    66  LYS66      -0.1314
     10  N         79.7220   23.2520   -3.8560 N.am   67  LYS67      -0.1980
     11  CA        78.8060   24.3590   -4.2130 C.3    67  LYS67       0.1596
     12  C         77.3730   24.0710   -3.7400 C.2    67  LYS67       0.2287
     13  O         76.4640   24.8860   -3.9470 O.2    67  LYS67      -0.2864
     14  CB        78.8250   24.6260   -5.7280 C.3    67  LYS67       0.0298
     15  CG        80.1360   25.2180   -6.2860 C.3    67  LYS67       0.0038
     16  CD        80.3200   26.7420   -6.0430 C.3    67  LYS67       0.0206
     17  CE        79.2560   27.6120   -6.7550 C.3    67  LYS67       0.1093
     18  NZ        79.1060   27.3940   -8.2420 N.3    67  LYS67      -0.1314
     19  N         75.6190   24.4770   -1.1240 N.3    69  ARG69      -0.1231
     20  CA        75.5410   25.2050    0.1610 C.3    69  ARG69       0.1694
     21  C         74.3120   26.0860    0.3100 C.2    69  ARG69       0.2593
     22  O         74.3270   27.0440    1.0690 O.2    69  ARG69      -0.2718
     23  CB        76.7970   26.0530    0.3520 C.3    69  ARG69       0.0321
     24  CG        77.9660   25.3100    0.9910 C.3    69  ARG69       0.0489
     25  CD        78.0550   23.8880    0.5140 C.3    69  ARG69       0.2205
     26  NE        79.2810   23.2130    0.9150 N.pl3  69  ARG69      -0.0865
     27  CZ        79.3960   21.8910    0.9840 C.cat  69  ARG69       0.5346
     28  NH1       78.3520   21.1240    0.6930 N.pl3  69  ARG69       0.1354
     29  NH2       80.5550   21.3320    1.3060 N.pl3  69  ARG69       0.1354
     30  N         73.2450   25.7720   -0.4050 N.am   70  THR70      -0.1940
     31  CA        72.0280   26.5500   -0.2630 C.3    70  THR70       0.2013
     32  C         71.4410   26.1830    1.1110 C.2    70  THR70       0.2484
     33  O         71.8580   25.1900    1.7030 O.2    70  THR70      -0.2729
     34  CB        71.0080   26.2040   -1.4190 C.3    70  THR70       0.1807
     35  OG1       69.9830   25.3240   -0.9430 O.3    70  THR70      -0.2208
     36  CG2       71.7250   25.5100   -2.5800 C.3    70  THR70       0.0379
     37  N         70.5190   26.9970    1.6650 N.am   71  PRO71      -0.2726
     38  CA        69.9820   26.5890    2.9680 C.3    71  PRO71       0.1402
     39  C         69.3500   25.2040    2.8730 C.2    71  PRO71       0.2269
     40  O         69.4680   24.4290    3.7980 O.2    71  PRO71      -0.2865
     41  CB        68.9640   27.6770    3.2710 C.3    71  PRO71       0.0296
     42  CG        69.6370   28.8860    2.7190 C.3    71  PRO71       0.0237
     43  CD        70.1420   28.3920    1.3660 C.3    71  PRO71       0.0939
     44  N         62.8330   29.7020    5.1570 N.3   134  GLU134     -0.1231
     45  CA        63.8050   29.9170    4.0740 C.3   134  GLU134      0.1699
     46  C         63.0580   29.9810    2.7790 C.2   134  GLU134      0.2592
     47  O         63.4860   30.6160    1.8220 O.2   134  GLU134     -0.2718
     48  CB        64.8170   28.7600    4.0440 C.3   134  GLU134      0.0402
     49  CG        65.9620   28.8600    3.0140 C.3   134  GLU134      0.1161
     50  CD        65.5580   28.4940    1.5790 C.2   134  GLU134      0.3649
     51  OE1       64.6410   27.6620    1.4040 O.co2 134  GLU134     -0.2457
     52  OE2       66.1770   29.0220    0.6230 O.co2 134  GLU134     -0.2457
     53  N         61.9080   29.3230    2.7730 N.am  135  ARG135     -0.1980
     54  CA        61.0620   29.2570    1.6070 C.3   135  ARG135      0.1597
     55  C         60.1930   30.5060    1.5230 C.2   135  ARG135      0.2287
     56  O         59.8530   30.9650    0.4420 O.2   135  ARG135     -0.2864
     57  CB        60.2170   27.9820    1.6930 C.3   135  ARG135      0.0334
     58  CG        59.7750   27.4130    0.3620 C.3   135  ARG135      0.0492
     59  CD        60.7120   27.7840   -0.7920 C.3   135  ARG135      0.2205
     60  NE        62.1180   27.5080   -0.5300 N.pl3 135  ARG135     -0.0865
     61  CZ        63.0880   27.7330   -1.4110 C.cat 135  ARG135      0.5346
     62  NH1       62.7980   28.2330   -2.6060 N.pl3 135  ARG135      0.1354
     63  NH2       64.3480   27.4590   -1.1000 N.pl3 135  ARG135      0.1354
     64  N         69.0350   37.2510    0.9520 N.3   147  ARG147     -0.1231
     65  CA        69.2810   35.8510    0.5890 C.3   147  ARG147      0.1694
     66  C         70.0370   35.2510    1.7790 C.2   147  ARG147      0.2592
     67  O         70.8260   35.9480    2.4310 O.2   147  ARG147     -0.2718
     68  CB        70.1400   35.7420   -0.6830 C.3   147  ARG147      0.0321
     69  CG        70.4500   34.3020   -1.1240 C.3   147  ARG147      0.0489
     70  CD        71.7850   34.2180   -1.8820 C.3   147  ARG147      0.2205
     71  NE        72.9430   34.4920   -1.0200 N.pl3 147  ARG147     -0.0865
     72  CZ        74.1880   34.7000   -1.4560 C.cat 147  ARG147      0.5346
     73  NH1       74.4620   34.6720   -2.7550 N.pl3 147  ARG147      0.1354
     74  NH2       75.1660   34.9340   -0.5890 N.pl3 147  ARG147      0.1354
     75  N         69.7950   33.9770    2.0710 N.am  148  PHE148     -0.1976
     76  CA        70.4510   33.3140    3.2000 C.3   148  PHE148      0.1639
     77  C         71.8450   32.8630    2.8290 C.2   148  PHE148      0.2290
     78  O         72.0160   32.0560    1.9180 O.2   148  PHE148     -0.2864
     79  CB        69.6360   32.0970    3.6350 C.3   148  PHE148      0.0560
     80  CG        68.2110   32.4120    3.9490 C.ar  148  PHE148     -0.0200
     81  CD1       67.8830   33.1020    5.1090 C.ar  148  PHE148     -0.0042
     82  CD2       67.1940   32.0380    3.0760 C.ar  148  PHE148     -0.0042
     83  CE1       66.5590   33.4160    5.3990 C.ar  148  PHE148     -0.0003
     84  CE2       65.8650   32.3490    3.3570 C.ar  148  PHE148     -0.0003
     85  CZ        65.5490   33.0400    4.5220 C.ar  148  PHE148     -0.0000
     86  N         75.4190   30.9530    3.9050 N.3   150  GLU150     -0.1245
     87  CA        75.5790   29.7380    4.6910 C.3   150  GLU150      0.1567
     88  C         75.5430   30.1990    6.1310 C.2   150  GLU150      0.2260
     89  O         75.2770   29.4460    7.0610 O.2   150  GLU150     -0.2867
     90  CB        76.9250   29.0860    4.3840 C.3   150  GLU150      0.0388
     91  CG        77.1630   28.7600    2.9110 C.3   150  GLU150      0.1160
     92  CD        78.5750   28.2430    2.6510 C.2   150  GLU150      0.3649
     93  OE1       78.9410   27.1810    3.2030 O.co2 150  GLU150     -0.2457
     94  OE2       79.3250   28.9040    1.8980 O.co2 150  GLU150     -0.2457
     95  N         65.0070   32.1060  -13.1410 N.3   238  THR238     -0.1218
     96  CA        65.5660   31.6280  -11.8730 C.3   238  THR238      0.1862
     97  C         64.4140   31.5820  -10.8470 C.2   238  THR238      0.2287
     98  O         64.6280   31.5070   -9.6420 O.2   238  THR238     -0.2866
     99  CB        66.7410   32.6020  -11.4100 C.3   238  THR238      0.1770
    100  OG1       67.3520   32.1170  -10.2040 O.3   238  THR238     -0.2211
    101  CG2       66.2240   34.0360  -11.1900 C.3   238  THR238      0.0375
    102  N         63.0790   27.7370  -10.1990 N.3   241  ALA241     -0.1231
    103  CA        64.0140   27.0210   -9.3580 C.3   241  ALA241      0.1694
    104  C         63.4390   27.0100   -7.9770 C.2   241  ALA241      0.2591
    105  O         63.1990   25.9600   -7.4100 O.2   241  ALA241     -0.2718
    106  CB        65.3500   27.7250   -9.3510 C.3   241  ALA241      0.0304
    107  N         63.2180   28.2050   -7.4390 N.am  242  GLU242     -0.1979
    108  CA        62.6500   28.3540   -6.1150 C.3   242  GLU242      0.1602
    109  C         61.1930   27.9600   -6.1780 C.2   242  GLU242      0.2287
    110  O         60.5750   27.7180   -5.1530 O.2   242  GLU242     -0.2864
    111  CB        62.7980   29.8030   -5.6270 C.3   242  GLU242      0.0415
    112  CG        64.0590   30.0840   -4.7810 C.3   242  GLU242      0.1163
    113  CD        65.3780   29.9010   -5.5400 C.2   242  GLU242      0.3649
    114  OE1       65.6310   28.7850   -6.0470 O.co2 242  GLU242     -0.2457
    115  OE2       66.1690   30.8720   -5.6230 O.co2 242  GLU242     -0.2457
    116  N         61.8300   24.0460   -5.7150 N.3   245  VAL245     -0.1245
    117  CA        62.3820   23.6090   -4.4310 C.3   245  VAL245      0.1561
    118  C         61.2380   23.6030   -3.4580 C.2   245  VAL245      0.2260
    119  O         61.1820   22.8130   -2.5370 O.2   245  VAL245     -0.2867
    120  CB        63.4460   24.6010   -3.8920 C.3   245  VAL245      0.0252
    121  CG1       63.8240   24.2440   -2.4680 C.3   245  VAL245      0.0019
    122  CG2       64.6740   24.5800   -4.7650 C.3   245  VAL245      0.0019
    123  N         69.3310   19.1100   -9.4630 N.3   307  GLN307     -0.1245
    124  CA        70.7120   19.4700   -9.1730 C.3   307  GLN307      0.1566
    125  C         71.4320   18.4210   -8.3370 C.2   307  GLN307      0.2260
    126  O         72.4630   17.9360   -8.7520 O.2   307  GLN307     -0.2867
    127  CB        70.7860   20.8050   -8.4480 C.3   307  GLN307      0.0367
    128  CG        72.1890   21.0850   -7.9090 C.3   307  GLN307      0.0905
    129  CD        72.3280   22.4290   -7.2060 C.2   307  GLN307      0.2608
    130  OE1       71.5260   22.7880   -6.3180 O.2   307  GLN307     -0.2717
    131  NE2       73.3620   23.1730   -7.5860 N.am  307  GLN307     -0.0878
    132  N         72.3690   24.5020  -12.6880 N.3   327  THR327     -0.1218
    133  CA        73.7370   24.9690  -12.3460 C.3   327  THR327      0.1862
    134  C         74.5990   23.7680  -11.8840 C.2   327  THR327      0.2287
    135  O         74.1850   22.6280  -12.0610 O.2   327  THR327     -0.2866
    136  CB        73.7250   26.1610  -11.2840 C.3   327  THR327      0.1770
    137  OG1       72.7550   25.9230  -10.2480 O.3   327  THR327     -0.2211
    138  CG2       73.4000   27.4930  -11.9830 C.3   327  THR327      0.0375
    139  N         82.7990   29.2160   -9.1830 N.3   337  VAL337     -0.1231
    140  CA        81.6830   30.0910   -8.9220 C.3   337  VAL337      0.1692
    141  C         81.2970   30.8830  -10.1590 C.2   337  VAL337      0.2592
    142  O         82.0730   31.0030  -11.0890 O.2   337  VAL337     -0.2718
    143  CB        82.0180   31.0430   -7.7630 C.3   337  VAL337      0.0266
    144  CG1       82.4280   30.2400   -6.5220 C.3   337  VAL337      0.0020
    145  CG2       83.1270   31.9570   -8.1690 C.3   337  VAL337      0.0020
    146  N         80.0710   31.4020  -10.1560 N.am  338  ALA338     -0.1966
    147  CA        79.5480   32.2070  -11.2530 C.3   338  ALA338      0.1713
    148  C         78.6280   33.3130  -10.7000 C.2   338  ALA338      0.2458
    149  O         77.6670   33.7020  -11.3680 O.2   338  ALA338     -0.2730
    150  CB        78.7820   31.3180  -12.2040 C.3   338  ALA338      0.0333
    151  N         78.9370   33.8630   -9.4950 N.am  339  PRO339     -0.2727
    152  CA        78.1250   34.9150   -8.8610 C.3   339  PRO339      0.1402
    153  C         78.0420   36.2180   -9.6250 C.2   339  PRO339      0.2269
    154  O         77.6870   36.2520  -10.8050 O.2   339  PRO339     -0.2865
    155  CB        78.8070   35.1280   -7.4960 C.3   339  PRO339      0.0296
    156  CG        79.7060   33.9450   -7.3200 C.3   339  PRO339      0.0237
    157  CD        80.1750   33.6690   -8.7200 C.3   339  PRO339      0.0939
@<TRIPOS>BOND
     1    95    96    1
     2   132   133    1
     3   133   134    1
     4   133   136    1
     5   150   147    1
     6   135   134    2
     7   138   136    1
     8    96    99    1
     9    96    97    1
    10    99   101    1
    11    99   100    1
    12   149   148    2
    13   136   137    1
    14   147   148    1
    15   147   146    1
    16   142   141    2
    17    97    98    2
    18   154   153    2
    19   148   151   am
    20   102   103    1
    21   141   146   am
    22   141   140    1
    23   153   152    1
    24   151   152    1
    25   151   157    1
    26   123   124    1
    27   103   106    1
    28   103   104    1
    29   139   140    1
    30   124   127    1
    31   124   125    1
    32   140   143    1
    33   152   155    1
    34   126   125    2
    35   157   156    1
    36   127   128    1
    37    18    17    1
    38   145   143    1
    39   104   107   am
    40   104   105    2
    41   128   129    1
    42   143   144    1
    43   131   129   am
    44   155   156    1
    45   107   108    1
    46   129   130    2
    47    17    16    1
    48    15    16    1
    49    15    14    1
    50   109   108    1
    51   109   110    2
    52   108   111    1
    53   114   113   ar
    54    14    11    1
    55   116   117    1
    56   111   112    1
    57   115   113   ar
    58   113   112    1
    59   122   120    1
    60   117   120    1
    61   117   118    1
    62    11    10    1
    63    11    12    1
    64    13    12    2
    65   120   121    1
    66    10     3   am
    67   118   119    2
    68     1     2    1
    69     3     2    1
    70     3     4    2
    71    73    72    1
    72    62    61    1
    73    36    34    1
    74     5     2    1
    75     5     6    1
    76    70    69    1
    77    70    71    1
    78     7     6    1
    79     7     8    1
    80    72    71    2
    81    72    74    1
    82    34    35    1
    83    34    31    1
    84    61    63    1
    85    61    60    2
    86    19    20    1
    87    69    68    1
    88     9     8    1
    89    59    60    1
    90    59    58    1
    91    68    65    1
    92    30    31    1
    93    30    21   am
    94    31    32    1
    95    20    21    1
    96    20    23    1
    97    21    22    2
    98    23    24    1
    99    58    57    1
   100    56    55    2
   101    25    26    1
   102    25    24    1
   103    65    64    1
   104    65    66    1
   105    52    50   ar
   106    28    27    1
   107    26    27    2
   108    27    29    1
   109    32    37   am
   110    32    33    2
   111    43    37    1
   112    43    42    1
   113    51    50   ar
   114    55    54    1
   115    50    49    1
   116    54    57    1
   117    54    53    1
   118    37    38    1
   119    66    75   am
   120    66    67    2
   121    47    46    2
   122    94    92   ar
   123    78    77    2
   124    75    76    1
   125    92    91    1
   126    92    93   ar
   127    42    41    1
   128    53    46   am
   129    46    45    1
   130    77    76    1
   131    39    38    1
   132    39    40    2
   133    91    90    1
   134    38    41    1
   135    49    48    1
   136    82    84   ar
   137    82    80   ar
   138    76    79    1
   139    84    85   ar
   140    79    80    1
   141    86    87    1
   142    80    81   ar
   143    48    45    1
   144    45    44    1
   145    90    87    1
   146    85    83   ar
   147    87    88    1
   148    81    83   ar
   149    88    89    2
