@<TRIPOS>MOLECULE
tmp/1l9hA07.pdb
 92 85 0 0 0
SMALL
GASTEIGER

@<TRIPOS>ATOM
      1  N         53.9500   22.4810  -11.2390 N.3   234  ALA234     -0.1231
      2  CA        55.3920   22.3090  -11.5040 C.3   234  ALA234      0.1694
      3  C         55.5620   21.5730  -12.8300 C.2   234  ALA234      0.2591
      4  O         54.5980   21.0160  -13.3560 O.2   234  ALA234     -0.2718
      5  CB        56.0810   21.5310  -10.3590 C.3   234  ALA234      0.0304
      6  N         56.7780   21.5870  -13.3720 N.am  235  ALA235     -0.1980
      7  CA        57.0720   20.9210  -14.6510 C.3   235  ALA235      0.1597
      8  C         58.5720   20.7940  -14.8320 C.2   235  ALA235      0.2287
      9  O         59.3400   21.2420  -13.9860 O.2   235  ALA235     -0.2864
     10  CB        56.4670   21.7160  -15.8140 C.3   235  ALA235      0.0319
     11  N         60.3190   25.3480   -7.5880 N.3   244  GLU244     -0.1245
     12  CA        60.3720   23.8910   -7.6590 C.3   244  GLU244      0.1567
     13  C         60.9130   23.3260   -6.3550 C.2   244  GLU244      0.2260
     14  O         60.5010   22.2590   -5.9350 O.2   244  GLU244     -0.2867
     15  CB        61.2270   23.4770   -8.8650 C.3   244  GLU244      0.0388
     16  CG        61.2280   22.0000   -9.1850 C.3   244  GLU244      0.1160
     17  CD        62.5130   21.3410   -8.7320 C.2   244  GLU244      0.3649
     18  OE1       62.8120   21.4230   -7.5170 O.co2 244  GLU244     -0.2457
     19  OE2       63.2280   20.7530   -9.5840 O.co2 244  GLU244     -0.2457
     20  N         58.0200   23.0000   -4.2150 N.3   247  ARG247     -0.1245
     21  CA        57.1200   21.8830   -4.3460 C.3   247  ARG247      0.1563
     22  C         57.7480   20.6990   -3.6660 C.2   247  ARG247      0.2260
     23  O         57.0810   19.7190   -3.3980 O.2   247  ARG247     -0.2867
     24  CB        56.7800   21.5660   -5.8130 C.3   247  ARG247      0.0307
     25  CG        55.5590   20.6220   -5.9020 C.3   247  ARG247      0.0489
     26  CD        54.8560   20.5270   -7.2750 C.3   247  ARG247      0.2205
     27  NE        53.5250   19.8910   -7.1640 N.pl3 247  ARG247     -0.0865
     28  CZ        53.2430   18.5970   -7.3750 C.cat 247  ARG247      0.5346
     29  NH1       54.1880   17.7250   -7.7290 N.pl3 247  ARG247      0.1354
     30  NH2       51.9960   18.1670   -7.2200 N.pl3 247  ARG247      0.1354
     31  N         56.2690   18.4640   -0.4120 N.3   251  ILE251     -0.1245
     32  CA        56.0450   17.0280   -0.4020 C.3   251  ILE251      0.1561
     33  C         56.7020   16.4550    0.8440 C.2   251  ILE251      0.2260
     34  O         56.3930   15.3560    1.2650 O.2   251  ILE251     -0.2867
     35  CB        56.6310   16.3510   -1.6680 C.3   251  ILE251      0.0252
     36  CG1       55.8020   16.7400   -2.8910 C.3   251  ILE251      0.0019
     37  CG2       56.6360   14.8280   -1.5020 C.3   251  ILE251      0.0019
     38  CD1       54.3410   16.3680   -2.7600 C.3   251  ILE251      0.0001
     39  N         63.0900    8.3710    4.1480 N.3   296  TYR296     -0.1241
     40  CA        62.3440    8.9140    3.0160 C.3   296  TYR296      0.1605
     41  C         62.8090   10.2790    2.5860 C.2   296  TYR296      0.2264
     42  O         62.6810   10.5860    1.4010 O.2   296  TYR296     -0.2867
     43  CB        60.8330    8.9270    3.2690 C.3   296  TYR296      0.0534
     44  CG        60.3510    9.9610    4.2340 C.ar  296  TYR296     -0.0201
     45  CD1       60.0490   11.2430    3.8250 C.ar  296  TYR296     -0.0009
     46  CD2       60.1630    9.6390    5.5670 C.ar  296  TYR296     -0.0009
     47  CE1       59.5630   12.1780    4.7400 C.ar  296  TYR296      0.0417
     48  CE2       59.6790   10.5550    6.4740 C.ar  296  TYR296      0.0417
     49  CZ        59.3800   11.8130    6.0650 C.ar  296  TYR296      0.1957
     50  OH        58.8840   12.6760    7.0040 O.3   296  TYR296     -0.2866
     51  N         65.2420   10.2920   -0.1990 N.3   299  VAL299     -0.1231
     52  CA        64.6160    9.7740   -1.3900 C.3   299  VAL299      0.1692
     53  C         63.8890   10.8930   -2.0890 C.2   299  VAL299      0.2591
     54  O         64.0270   11.0490   -3.2780 O.2   299  VAL299     -0.2718
     55  CB        63.6570    8.6110   -1.0550 C.3   299  VAL299      0.0266
     56  CG1       62.9420    8.1280   -2.2970 C.3   299  VAL299      0.0020
     57  CG2       64.4550    7.4670   -0.4820 C.3   299  VAL299      0.0020
     58  N         63.1320   11.6890   -1.3500 N.am  300  ILE300     -0.1980
     59  CA        62.4060   12.8050   -1.9530 C.3   300  ILE300      0.1595
     60  C         63.3810   13.7820   -2.6030 C.2   300  ILE300      0.2287
     61  O         63.1190   14.3400   -3.6620 O.2   300  ILE300     -0.2864
     62  CB        61.6030   13.5760   -0.8910 C.3   300  ILE300      0.0276
     63  CG1       60.6100   12.6300   -0.2240 C.3   300  ILE300      0.0022
     64  CG2       60.9090   14.7640   -1.5260 C.3   300  ILE300      0.0022
     65  CD1       59.5540   13.2960    0.6020 C.3   300  ILE300      0.0001
     66  N         64.9300   12.7450   -5.8590 N.3   303  MET303     -0.1230
     67  CA        63.9700   12.6220   -6.9550 C.3   303  MET303      0.1702
     68  C         63.3810   13.9710   -7.3260 C.2   303  MET303      0.2592
     69  O         62.8710   14.1550   -8.4330 O.2   303  MET303     -0.2718
     70  CB        62.8210   11.6700   -6.5740 C.3   303  MET303      0.0401
     71  CG        63.2290   10.3680   -5.9170 C.3   303  MET303      0.0596
     72  SD        64.4660    9.4470   -6.8280 S.3   303  MET303     -0.1393
     73  CE        63.5520    9.0130   -8.1770 C.3   303  MET303      0.0692
     74  N         63.4550   14.9270   -6.4120 N.am  304  MET304     -0.1979
     75  CA        62.8510   16.2180   -6.6820 C.3   304  MET304      0.1605
     76  C         63.8550   17.3060   -6.8540 C.2   304  MET304      0.2287
     77  O         63.4900   18.4260   -7.1400 O.2   304  MET304     -0.2864
     78  CB        61.8760   16.5640   -5.5640 C.3   304  MET304      0.0413
     79  CG        60.7660   15.5460   -5.4290 C.3   304  MET304      0.0598
     80  SD        59.4380   16.2390   -4.4920 S.3   304  MET304     -0.1393
     81  CE        58.8950   17.5200   -5.6000 C.3   304  MET304      0.0692
     82  N         70.5430   15.3400   -7.5660 N.3   309  ARG309     -0.1245
     83  CA        70.5060   14.0180   -8.2000 C.3   309  ARG309      0.1563
     84  C         71.7130   13.7680   -9.0730 C.2   309  ARG309      0.2260
     85  O         72.3020   12.7040   -9.0060 O.2   309  ARG309     -0.2867
     86  CB        69.2390   13.8340   -9.0330 C.3   309  ARG309      0.0307
     87  CG        69.1410   12.4340   -9.5880 C.3   309  ARG309      0.0489
     88  CD        67.7610   12.1560  -10.0730 C.3   309  ARG309      0.2205
     89  NE        67.3710   12.9980  -11.1960 N.pl3 309  ARG309     -0.0865
     90  CZ        66.4200   13.9210  -11.1330 C.cat 309  ARG309      0.5346
     91  NH1       65.7670   14.1300   -9.9990 N.pl3 309  ARG309      0.1354
     92  NH2       66.0980   14.6120  -12.2170 N.pl3 309  ARG309      0.1354
@<TRIPOS>BOND
     1    10     7    1
     2     8     7    1
     3     8     9    2
     4     7     6    1
     5     6     3   am
     6     4     3    2
     7     3     2    1
     8    92    90    1
     9     2     1    1
    10     2     5    1
    11    89    90    2
    12    89    88    1
    13    90    91    1
    14    88    87    1
    15    87    86    1
    16    19    17   ar
    17    16    15    1
    18    16    17    1
    19    84    85    2
    20    84    83    1
    21    86    83    1
    22    15    12    1
    23    17    18   ar
    24    69    68    2
    25    83    82    1
    26    73    72    1
    27    29    28    1
    28    12    11    1
    29    12    13    1
    30    28    30    1
    31    28    27    2
    32    68    67    1
    33    68    74   am
    34    26    27    1
    35    26    25    1
    36    77    76    2
    37    67    70    1
    38    67    66    1
    39    76    75    1
    40    72    71    1
    41    75    74    1
    42    75    78    1
    43    70    71    1
    44    13    14    2
    45    25    24    1
    46    24    21    1
    47    81    80    1
    48    78    79    1
    49    79    80    1
    50    21    20    1
    51    21    22    1
    52    22    23    2
    53    61    60    2
    54    54    53    2
    55    36    38    1
    56    36    35    1
    57    60    59    1
    58    56    55    1
    59    53    52    1
    60    53    58   am
    61    59    58    1
    62    59    62    1
    63    35    37    1
    64    35    32    1
    65    64    62    1
    66    52    55    1
    67    52    51    1
    68    55    57    1
    69    62    63    1
    70    31    32    1
    71    32    33    1
    72    63    65    1
    73    33    34    2
    74    42    41    2
    75    41    40    1
    76    40    43    1
    77    40    39    1
    78    43    44    1
    79    45    44   ar
    80    45    47   ar
    81    44    46   ar
    82    47    49   ar
    83    46    48   ar
    84    49    48   ar
    85    49    50    1
