@<TRIPOS>MOLECULE
tmp/1l9hB07.pdb
 106 99 0 0 0
SMALL
GASTEIGER

@<TRIPOS>ATOM
      1  N         57.0130    8.8460   -8.4030 N.3    39  MET39      -0.1245
      2  CA        56.6510    7.8060   -7.4500 C.3    39  MET39       0.1570
      3  C         57.3420    6.4850   -7.8360 C.2    39  MET39       0.2261
      4  O         57.8180    5.7660   -6.9710 O.2    39  MET39      -0.2867
      5  CB        55.1290    7.6400   -7.4520 C.3    39  MET39       0.0387
      6  CG        54.5340    7.2110   -6.1260 C.3    39  MET39       0.0595
      7  SD        54.6270    8.4830   -4.8430 S.3    39  MET39      -0.1393
      8  CE        56.2860    8.2650   -4.2330 C.3    39  MET39       0.0692
      9  N         61.1640    6.8660   -7.2930 N.3    42  ALA42      -0.1231
     10  CA        61.5240    6.7100   -5.8690 C.3    42  ALA42       0.1694
     11  C         61.6040    5.2280   -5.5860 C.2    42  ALA42       0.2592
     12  O         62.6080    4.7170   -5.0980 O.2    42  ALA42      -0.2718
     13  CB        60.4580    7.3400   -4.9760 C.3    42  ALA42       0.0304
     14  N         60.5150    4.5450   -5.9210 N.am   43  TYR43      -0.1976
     15  CA        60.3710    3.1110   -5.7500 C.3    43  TYR43       0.1639
     16  C         61.5810    2.3830   -6.2810 C.2    43  TYR43       0.2290
     17  O         62.1690    1.5720   -5.5750 O.2    43  TYR43      -0.2864
     18  CB        59.1250    2.6410   -6.4890 C.3    43  TYR43       0.0560
     19  CG        58.9490    1.1450   -6.5370 C.ar   43  TYR43      -0.0198
     20  CD1       58.7960    0.3960   -5.3730 C.ar   43  TYR43      -0.0009
     21  CD2       58.8780    0.4800   -7.7500 C.ar   43  TYR43      -0.0009
     22  CE1       58.5640   -0.9880   -5.4210 C.ar   43  TYR43       0.0417
     23  CE2       58.6460   -0.8970   -7.8110 C.ar   43  TYR43       0.0417
     24  CZ        58.4860   -1.6190   -6.6470 C.ar   43  TYR43       0.1957
     25  OH        58.2060   -2.9610   -6.7220 O.3    43  TYR43      -0.2866
     26  N         64.8010    2.9560   -4.3000 N.3    46  LEU46      -0.1231
     27  CA        64.8540    2.0870   -3.1010 C.3    46  LEU46       0.1693
     28  C         65.2610    0.6900   -3.5030 C.2    46  LEU46       0.2591
     29  O         66.1430    0.0900   -2.8910 O.2    46  LEU46      -0.2718
     30  CB        63.4870    1.9730   -2.4210 C.3    46  LEU46       0.0284
     31  CG        62.8720    3.2000   -1.7810 C.3    46  LEU46       0.0019
     32  CD1       61.5410    2.8080   -1.2060 C.3    46  LEU46       0.0001
     33  CD2       63.7830    3.7510   -0.7100 C.3    46  LEU46       0.0001
     34  N         64.5830    0.1560   -4.5170 N.am   47  LEU47      -0.1980
     35  CA        64.8740   -1.1850   -4.9910 C.3    47  LEU47       0.1596
     36  C         66.3470   -1.3090   -5.2290 C.2    47  LEU47       0.2287
     37  O         66.9780   -2.2420   -4.7620 O.2    47  LEU47      -0.2864
     38  CB        64.1020   -1.4860   -6.2730 C.3    47  LEU47       0.0297
     39  CG        62.7220   -2.0840   -6.0340 C.3    47  LEU47       0.0022
     40  CD1       62.1390   -2.5840   -7.3200 C.3    47  LEU47       0.0001
     41  CD2       62.8510   -3.2350   -5.0850 C.3    47  LEU47       0.0001
     42  N         68.4480   -1.2070   -2.1140 N.3    50  LEU50      -0.1245
     43  CA        68.2530   -2.3070   -1.1850 C.3    50  LEU50       0.1561
     44  C         68.7120   -3.5950   -1.8160 C.2    50  LEU50       0.2260
     45  O         69.5620   -4.2640   -1.2770 O.2    50  LEU50      -0.2867
     46  CB        66.7790   -2.4070   -0.8040 C.3    50  LEU50       0.0270
     47  CG        66.4210   -3.0320    0.5520 C.3    50  LEU50       0.0019
     48  CD1       64.9510   -2.7570    0.8360 C.3    50  LEU50       0.0001
     49  CD2       66.6800   -4.5120    0.5650 C.3    50  LEU50       0.0001
     50  N         58.6980  -21.9990    0.2280 N.3   231  ILE231     -0.1245
     51  CA        58.2520  -20.6490    0.3990 C.3   231  ILE231      0.1561
     52  C         58.8160  -19.8350   -0.6980 C.2   231  ILE231      0.2260
     53  O         58.2330  -18.8420   -1.0860 O.2   231  ILE231     -0.2867
     54  CB        58.6830  -20.0930    1.7230 C.3   231  ILE231      0.0252
     55  CG1       57.9510  -20.8520    2.8190 C.3   231  ILE231      0.0019
     56  CG2       58.3720  -18.6180    1.7920 C.3   231  ILE231      0.0019
     57  CD1       56.4680  -21.0140    2.5320 C.3   231  ILE231      0.0001
     58  N         60.3710   -6.6650   -7.4320 N.3   272  THR272     -0.1218
     59  CA        60.8990   -6.9460   -6.0850 C.3   272  THR272      0.1862
     60  C         61.5620   -8.3370   -6.1190 C.2   272  THR272      0.2287
     61  O         62.2080   -8.7750   -5.1580 O.2   272  THR272     -0.2866
     62  CB        59.8010   -6.8950   -4.9570 C.3   272  THR272      0.1770
     63  OG1       58.7630   -7.8570   -5.2100 O.3   272  THR272     -0.2211
     64  CG2       59.2260   -5.5040   -4.8570 C.3   272  THR272      0.0375
     65  N         65.0360   -8.8900   -5.0030 N.3   275  VAL275     -0.1231
     66  CA        65.5040   -8.7850   -3.6370 C.3   275  VAL275      0.1692
     67  C         64.7910   -9.6920   -2.6640 C.2   275  VAL275      0.2592
     68  O         65.3500  -10.0290   -1.6440 O.2   275  VAL275     -0.2718
     69  CB        65.4290   -7.2890   -3.1630 C.3   275  VAL275      0.0266
     70  CG1       64.2800   -6.5840   -3.8280 C.3   275  VAL275      0.0020
     71  CG2       65.2640   -7.2080   -1.6660 C.3   275  VAL275      0.0020
     72  N         63.5870  -10.1270   -2.9750 N.am  276  TYR276     -0.1976
     73  CA        62.8650  -10.9500   -2.0190 C.3   276  TYR276      0.1639
     74  C         63.4980  -12.2920   -1.7690 C.2   276  TYR276      0.2290
     75  O         63.2370  -12.8900   -0.7400 O.2   276  TYR276     -0.2864
     76  CB        61.4280  -11.1660   -2.4750 C.3   276  TYR276      0.0560
     77  CG        61.2530  -12.2830   -3.4720 C.ar  276  TYR276     -0.0198
     78  CD1       61.2880  -13.6140   -3.0770 C.ar  276  TYR276     -0.0009
     79  CD2       60.9890  -12.0070   -4.8030 C.ar  276  TYR276     -0.0009
     80  CE1       61.0510  -14.6340   -3.9850 C.ar  276  TYR276      0.0417
     81  CE2       60.7510  -13.0190   -5.7150 C.ar  276  TYR276      0.0417
     82  CZ        60.7780  -14.3240   -5.3000 C.ar  276  TYR276      0.1957
     83  OH        60.4880  -15.3170   -6.1950 O.3   276  TYR276     -0.2866
     84  N         65.9780  -12.4340    1.3280 N.3   279  VAL279     -0.1231
     85  CA        65.2890  -12.2280    2.6090 C.3   279  VAL279      0.1692
     86  C         64.7670  -13.5450    3.1290 C.2   279  VAL279      0.2591
     87  O         64.8640  -13.8250    4.3220 O.2   279  VAL279     -0.2718
     88  CB        64.1120  -11.2860    2.4640 C.3   279  VAL279      0.0266
     89  CG1       63.5220  -11.0050    3.8220 C.3   279  VAL279      0.0020
     90  CG2       64.5550  -10.0180    1.7860 C.3   279  VAL279      0.0020
     91  N         64.1920  -14.3450    2.2350 N.am  280  ILE280     -0.1980
     92  CA        63.6860  -15.6440    2.6310 C.3   280  ILE280      0.1595
     93  C         64.8480  -16.3600    3.2660 C.2   280  ILE280      0.2287
     94  O         64.8030  -16.7670    4.4190 O.2   280  ILE280     -0.2864
     95  CB        63.1990  -16.4860    1.4040 C.3   280  ILE280      0.0276
     96  CG1       62.1740  -15.7070    0.5890 C.3   280  ILE280      0.0022
     97  CG2       62.5250  -17.7680    1.8720 C.3   280  ILE280      0.0022
     98  CD1       61.4810  -16.5370   -0.4670 C.3   280  ILE280      0.0001
     99  N         65.9410  -15.4210    6.6080 N.3   283  MET283     -0.1245
    100  CA        64.9570  -15.7240    7.6040 C.3   283  MET283      0.1570
    101  C         64.6600  -17.1990    7.7500 C.2   283  MET283      0.2261
    102  O         64.1080  -17.6020    8.7630 O.2   283  MET283     -0.2867
    103  CB        63.6920  -14.9750    7.2700 C.3   283  MET283      0.0387
    104  CG        63.8970  -13.5050    7.2770 C.3   283  MET283      0.0595
    105  SD        62.5330  -12.7650    8.1580 S.3   283  MET283     -0.1393
    106  CE        61.3660  -12.4320    6.7590 C.3   283  MET283      0.0692
@<TRIPOS>BOND
     1     1     2    1
     2     3     2    1
     3     3     4    2
     4    23    21   ar
     5    23    24   ar
     6    21    19   ar
     7     5     2    1
     8     5     6    1
     9    58    59    1
    10    40    39    1
    11     9    10    1
    12    25    24    1
    13    24    22   ar
    14    19    18    1
    15    19    20   ar
    16    18    15    1
    17    16    15    1
    18    16    17    2
    19    38    39    1
    20    38    35    1
    21    83    82    1
    22     6     7    1
    23    60    59    1
    24    60    61    2
    25    59    62    1
    26    39    41    1
    27    14    15    1
    28    14    11   am
    29    10    11    1
    30    10    13    1
    31    81    82   ar
    32    81    79   ar
    33    11    12    2
    34    22    20   ar
    35    82    80   ar
    36    36    35    1
    37    36    37    2
    38    63    62    1
    39    65    66    1
    40    35    34    1
    41    62    64    1
    42     7     8    1
    43    79    77   ar
    44    34    28   am
    45    26    27    1
    46    80    78   ar
    47    70    69    1
    48    66    69    1
    49    66    67    1
    50    28    27    1
    51    28    29    2
    52    77    78   ar
    53    77    76    1
    54    69    71    1
    55    27    30    1
    56    72    67   am
    57    72    73    1
    58    67    68    2
    59    76    73    1
    60    30    31    1
    61    42    43    1
    62    73    74    1
    63    44    45    2
    64    44    43    1
    65    31    32    1
    66    31    33    1
    67    74    75    2
    68    43    46    1
    69    53    52    2
    70    46    47    1
    71    52    51    1
    72    98    96    1
    73    50    51    1
    74    51    54    1
    75    47    49    1
    76    47    48    1
    77    96    95    1
    78    84    85    1
    79    95    97    1
    80    95    92    1
    81    54    56    1
    82    54    55    1
    83    90    88    1
    84    91    92    1
    85    91    86   am
    86    88    85    1
    87    88    89    1
    88    57    55    1
    89    85    86    1
    90    92    93    1
    91    86    87    2
    92    93    94    2
    93    99   100    1
    94   106   105    1
    95   103   104    1
    96   103   100    1
    97   104   105    1
    98   100   101    1
    99   101   102    2
