@<TRIPOS>MOLECULE
tmp/1l9hA14.pdb
 75 69 0 0 0
SMALL
GASTEIGER

@<TRIPOS>ATOM
      1  N         56.7780   21.5870  -13.3720 N.3   235  ALA235     -0.1245
      2  CA        57.0720   20.9210  -14.6510 C.3   235  ALA235      0.1562
      3  C         58.5720   20.7940  -14.8320 C.2   235  ALA235      0.2260
      4  O         59.3400   21.2420  -13.9860 O.2   235  ALA235     -0.2867
      5  CB        56.4670   21.7160  -15.8140 C.3   235  ALA235      0.0290
      6  N         65.0070   32.1060  -13.1410 N.3   238  THR238     -0.1218
      7  CA        65.5660   31.6280  -11.8730 C.3   238  THR238      0.1862
      8  C         64.4140   31.5820  -10.8470 C.2   238  THR238      0.2287
      9  O         64.6280   31.5070   -9.6420 O.2   238  THR238     -0.2866
     10  CB        66.7410   32.6020  -11.4100 C.3   238  THR238      0.1770
     11  OG1       67.3520   32.1170  -10.2040 O.3   238  THR238     -0.2211
     12  CG2       66.2240   34.0360  -11.1900 C.3   238  THR238      0.0375
     13  N         61.7020   29.3990  -11.5670 N.3   240  LYS240     -0.1231
     14  CA        61.2190   28.0190  -11.7020 C.3   240  LYS240      0.1693
     15  C         62.1330   27.1140  -10.8870 C.2   240  LYS240      0.2592
     16  O         62.0030   25.8960  -10.8940 O.2   240  LYS240     -0.2718
     17  CB        61.2520   27.6080  -13.1790 C.3   240  LYS240      0.0285
     18  CG        60.6300   26.2510  -13.5050 C.3   240  LYS240      0.0035
     19  CD        59.1170   26.3410  -13.7350 C.3   240  LYS240      0.0206
     20  CE        58.5350   24.9830  -14.1490 C.3   240  LYS240      0.1093
     21  NZ        57.0640   25.0220  -14.4220 N.3   240  LYS240     -0.1314
     22  N         63.0790   27.7370  -10.1990 N.am  241  ALA241     -0.1966
     23  CA        64.0140   27.0210   -9.3580 C.3   241  ALA241      0.1728
     24  C         63.4390   27.0100   -7.9770 C.2   241  ALA241      0.2616
     25  O         63.1990   25.9600   -7.4100 O.2   241  ALA241     -0.2715
     26  CB        65.3500   27.7250   -9.3510 C.3   241  ALA241      0.0334
     27  N         63.2180   28.2050   -7.4390 N.am  242  GLU242     -0.1977
     28  CA        62.6500   28.3540   -6.1150 C.3   242  GLU242      0.1602
     29  C         61.1930   27.9600   -6.1780 C.2   242  GLU242      0.2287
     30  O         60.5750   27.7180   -5.1530 O.2   242  GLU242     -0.2864
     31  CB        62.7980   29.8030   -5.6270 C.3   242  GLU242      0.0415
     32  CG        64.0590   30.0840   -4.7810 C.3   242  GLU242      0.1163
     33  CD        65.3780   29.9010   -5.5400 C.2   242  GLU242      0.3649
     34  OE1       65.6310   28.7850   -6.0470 O.co2 242  GLU242     -0.2457
     35  OE2       66.1690   30.8720   -5.6230 O.co2 242  GLU242     -0.2457
     36  N         60.3190   25.3480   -7.5880 N.3   244  GLU244     -0.1245
     37  CA        60.3720   23.8910   -7.6590 C.3   244  GLU244      0.1567
     38  C         60.9130   23.3260   -6.3550 C.2   244  GLU244      0.2260
     39  O         60.5010   22.2590   -5.9350 O.2   244  GLU244     -0.2867
     40  CB        61.2270   23.4770   -8.8650 C.3   244  GLU244      0.0388
     41  CG        61.2280   22.0000   -9.1850 C.3   244  GLU244      0.1160
     42  CD        62.5130   21.3410   -8.7320 C.2   244  GLU244      0.3649
     43  OE1       62.8120   21.4230   -7.5170 O.co2 244  GLU244     -0.2457
     44  OE2       63.2280   20.7530   -9.5840 O.co2 244  GLU244     -0.2457
     45  N         66.7830   18.0420   -9.1720 N.3   306  LYS306     -0.1231
     46  CA        67.5830   17.6650  -10.3340 C.3   306  LYS306      0.1693
     47  C         69.0400   17.9620  -10.0730 C.2   306  LYS306      0.2591
     48  O         69.8890   17.1420  -10.3990 O.2   306  LYS306     -0.2718
     49  CB        67.1000   18.3870  -11.6090 C.3   306  LYS306      0.0285
     50  CG        67.5980   17.7260  -12.9140 C.3   306  LYS306      0.0035
     51  CD        66.6860   18.0110  -14.1230 C.3   306  LYS306      0.0206
     52  CE        66.6680   16.8300  -15.1240 C.3   306  LYS306      0.1093
     53  NZ        68.0300   16.3810  -15.5720 N.3   306  LYS306     -0.1314
     54  N         69.3310   19.1100   -9.4630 N.am  307  GLN307     -0.1979
     55  CA        70.7120   19.4700   -9.1730 C.3   307  GLN307      0.1601
     56  C         71.4320   18.4210   -8.3370 C.2   307  GLN307      0.2287
     57  O         72.4630   17.9360   -8.7520 O.2   307  GLN307     -0.2864
     58  CB        70.7860   20.8050   -8.4480 C.3   307  GLN307      0.0394
     59  CG        72.1890   21.0850   -7.9090 C.3   307  GLN307      0.0908
     60  CD        72.3280   22.4290   -7.2060 C.2   307  GLN307      0.2608
     61  OE1       71.5260   22.7880   -6.3180 O.2   307  GLN307     -0.2717
     62  NE2       73.3620   23.1730   -7.5860 N.am  307  GLN307     -0.0878
     63  N         69.9750   23.0030  -12.7810 N.3   326  SER326     -0.1202
     64  CA        70.6980   23.2740  -14.0290 C.3   326  SER326      0.2020
     65  C         72.1410   23.7320  -13.7610 C.2   326  SER326      0.2619
     66  O         73.0370   23.3850  -14.5380 O.2   326  SER326     -0.2717
     67  CB        69.9480   24.3270  -14.8620 C.3   326  SER326      0.2103
     68  OG        68.7120   23.8230  -15.3480 O.3   326  SER326     -0.2182
     69  N         72.3690   24.5020  -12.6880 N.am  327  THR327     -0.1952
     70  CA        73.7370   24.9690  -12.3460 C.3   327  THR327      0.1897
     71  C         74.5990   23.7680  -11.8840 C.2   327  THR327      0.2313
     72  O         74.1850   22.6280  -12.0610 O.2   327  THR327     -0.2863
     73  CB        73.7250   26.1610  -11.2840 C.3   327  THR327      0.1794
     74  OG1       72.7550   25.9230  -10.2480 O.3   327  THR327     -0.2208
     75  CG2       73.4000   27.4930  -11.9830 C.3   327  THR327      0.0378
@<TRIPOS>BOND
     1     5     2    1
     2    53    52    1
     3    68    67    1
     4    52    51    1
     5    67    64    1
     6     3     2    1
     7     3     4    2
     8     2     1    1
     9    66    65    2
    10    21    20    1
    11    20    19    1
    12    51    50    1
    13    64    65    1
    14    64    63    1
    15    65    69   am
    16    19    18    1
    17    18    17    1
    18    17    14    1
    19     6     7    1
    20    50    49    1
    21    69    70    1
    22    70    71    1
    23    70    73    1
    24    72    71    2
    25    75    73    1
    26     7    10    1
    27     7     8    1
    28    14    13    1
    29    14    15    1
    30    49    46    1
    31    10    12    1
    32    10    11    1
    33    73    74    1
    34    16    15    2
    35    15    22   am
    36     8     9    2
    37    48    47    2
    38    46    47    1
    39    46    45    1
    40    22    23    1
    41    47    54   am
    42    44    42   ar
    43    54    55    1
    44    23    26    1
    45    23    24    1
    46    41    40    1
    47    41    42    1
    48    55    58    1
    49    55    56    1
    50    40    37    1
    51    57    56    2
    52    42    43   ar
    53    58    59    1
    54    24    27   am
    55    24    25    2
    56    59    60    1
    57    37    36    1
    58    37    38    1
    59    62    60   am
    60    27    28    1
    61    60    61    2
    62    38    39    2
    63    29    28    1
    64    29    30    2
    65    28    31    1
    66    34    33   ar
    67    31    32    1
    68    35    33   ar
    69    33    32    1
