@<TRIPOS>MOLECULE
tmp/1l9hA08.pdb
 79 73 0 0 0
SMALL
GASTEIGER

@<TRIPOS>ATOM
      1  N         51.0230   26.2540   -7.2170 N.3   232  GLU232     -0.1231
      2  CA        51.1530   24.8700   -6.6890 C.3   232  GLU232      0.1699
      3  C         51.5590   23.7870   -7.7080 C.2   232  GLU232      0.2592
      4  O         51.8880   22.6840   -7.2860 O.2   232  GLU232     -0.2718
      5  CB        49.8420   24.4490   -5.9970 C.3   232  GLU232      0.0402
      6  CG        49.9660   23.2290   -5.0730 C.3   232  GLU232      0.1161
      7  CD        49.3060   21.9730   -5.6320 C.2   232  GLU232      0.3649
      8  OE1       48.0790   21.9990   -5.8620 O.co2 232  GLU232     -0.2457
      9  OE2       50.0090   20.9570   -5.8330 O.co2 232  GLU232     -0.2457
     10  N         51.5470   24.0580   -9.0120 N.am  233  ALA233     -0.1966
     11  CA        51.9330   23.0100   -9.9820 C.3   233  ALA233      0.1728
     12  C         53.4580   22.8680  -10.0640 C.2   233  ALA233      0.2616
     13  O         54.1620   23.0830   -9.0820 O.2   233  ALA233     -0.2715
     14  CB        51.3530   23.3260  -11.3620 C.3   233  ALA233      0.0334
     15  N         53.9500   22.4810  -11.2390 N.am  234  ALA234     -0.1977
     16  CA        55.3920   22.3090  -11.5040 C.3   234  ALA234      0.1597
     17  C         55.5620   21.5730  -12.8300 C.2   234  ALA234      0.2287
     18  O         54.5980   21.0160  -13.3560 O.2   234  ALA234     -0.2864
     19  CB        56.0810   21.5310  -10.3590 C.3   234  ALA234      0.0319
     20  N         58.0200   23.0000   -4.2150 N.3   247  ARG247     -0.1245
     21  CA        57.1200   21.8830   -4.3460 C.3   247  ARG247      0.1563
     22  C         57.7480   20.6990   -3.6660 C.2   247  ARG247      0.2260
     23  O         57.0810   19.7190   -3.3980 O.2   247  ARG247     -0.2867
     24  CB        56.7800   21.5660   -5.8130 C.3   247  ARG247      0.0307
     25  CG        55.5590   20.6220   -5.9020 C.3   247  ARG247      0.0489
     26  CD        54.8560   20.5270   -7.2750 C.3   247  ARG247      0.2205
     27  NE        53.5250   19.8910   -7.1640 N.pl3 247  ARG247     -0.0865
     28  CZ        53.2430   18.5970   -7.3750 C.cat 247  ARG247      0.5346
     29  NH1       54.1880   17.7250   -7.7290 N.pl3 247  ARG247      0.1354
     30  NH2       51.9960   18.1670   -7.2200 N.pl3 247  ARG247      0.1354
     31  N         56.2690   18.4640   -0.4120 N.3   251  ILE251     -0.1245
     32  CA        56.0450   17.0280   -0.4020 C.3   251  ILE251      0.1561
     33  C         56.7020   16.4550    0.8440 C.2   251  ILE251      0.2260
     34  O         56.3930   15.3560    1.2650 O.2   251  ILE251     -0.2867
     35  CB        56.6310   16.3510   -1.6680 C.3   251  ILE251      0.0252
     36  CG1       55.8020   16.7400   -2.8910 C.3   251  ILE251      0.0019
     37  CG2       56.6360   14.8280   -1.5020 C.3   251  ILE251      0.0019
     38  CD1       54.3410   16.3680   -2.7600 C.3   251  ILE251      0.0001
     39  N         54.0410   16.5990    3.4920 N.3   254  ILE254     -0.1231
     40  CA        53.0090   15.5790    3.3620 C.3   254  ILE254      0.1692
     41  C         53.5340   14.3060    3.9780 C.2   254  ILE254      0.2591
     42  O         52.8460   13.6170    4.7190 O.2   254  ILE254     -0.2718
     43  CB        52.6880   15.2820    1.8940 C.3   254  ILE254      0.0266
     44  CG1       52.2420   16.5540    1.1890 C.3   254  ILE254      0.0019
     45  CG2       51.6050   14.2390    1.8050 C.3   254  ILE254      0.0020
     46  CD1       51.0610   17.2030    1.8490 C.3   254  ILE254      0.0001
     47  N         54.7880   14.0120    3.6650 N.am  255  ALA255     -0.1980
     48  CA        55.4520   12.8130    4.1420 C.3   255  ALA255      0.1597
     49  C         55.6070   12.8190    5.6530 C.2   255  ALA255      0.2287
     50  O         55.3750   11.8100    6.2950 O.2   255  ALA255     -0.2864
     51  CB        56.8050   12.6720    3.4600 C.3   255  ALA255      0.0319
     52  N         52.1000   11.8850    7.0090 N.3   258  ILE258     -0.1245
     53  CA        51.7930   10.4870    6.7460 C.3   258  ILE258      0.1561
     54  C         52.5220    9.6080    7.7490 C.2   258  ILE258      0.2260
     55  O         52.0000    8.6050    8.1990 O.2   258  ILE258     -0.2867
     56  CB        52.2200   10.0730    5.3070 C.3   258  ILE258      0.0252
     57  CG1       51.3530   10.7770    4.2680 C.3   258  ILE258      0.0019
     58  CG2       52.0840    8.5820    5.1280 C.3   258  ILE258      0.0019
     59  CD1       51.5830   10.2890    2.8490 C.3   258  ILE258      0.0001
     60  N         63.0900    8.3710    4.1480 N.3   296  TYR296     -0.1241
     61  CA        62.3440    8.9140    3.0160 C.3   296  TYR296      0.1605
     62  C         62.8090   10.2790    2.5860 C.2   296  TYR296      0.2264
     63  O         62.6810   10.5860    1.4010 O.2   296  TYR296     -0.2867
     64  CB        60.8330    8.9270    3.2690 C.3   296  TYR296      0.0534
     65  CG        60.3510    9.9610    4.2340 C.ar  296  TYR296     -0.0201
     66  CD1       60.0490   11.2430    3.8250 C.ar  296  TYR296     -0.0009
     67  CD2       60.1630    9.6390    5.5670 C.ar  296  TYR296     -0.0009
     68  CE1       59.5630   12.1780    4.7400 C.ar  296  TYR296      0.0417
     69  CE2       59.6790   10.5550    6.4740 C.ar  296  TYR296      0.0417
     70  CZ        59.3800   11.8130    6.0650 C.ar  296  TYR296      0.1957
     71  OH        58.8840   12.6760    7.0040 O.3   296  TYR296     -0.2866
     72  N         63.1320   11.6890   -1.3500 N.3   300  ILE300     -0.1245
     73  CA        62.4060   12.8050   -1.9530 C.3   300  ILE300      0.1561
     74  C         63.3810   13.7820   -2.6030 C.2   300  ILE300      0.2260
     75  O         63.1190   14.3400   -3.6620 O.2   300  ILE300     -0.2867
     76  CB        61.6030   13.5760   -0.8910 C.3   300  ILE300      0.0252
     77  CG1       60.6100   12.6300   -0.2240 C.3   300  ILE300      0.0019
     78  CG2       60.9090   14.7640   -1.5260 C.3   300  ILE300      0.0019
     79  CD1       59.5540   13.2960    0.6020 C.3   300  ILE300      0.0001
@<TRIPOS>BOND
     1    18    17    2
     2    17    16    1
     3    16    15    1
     4    16    19    1
     5    14    11    1
     6    15    12   am
     7    12    11    1
     8    12    13    2
     9    11    10    1
    10    10     3   am
    11    29    28    1
    12     3     4    2
    13     3     2    1
    14    28    30    1
    15    28    27    2
    16    26    27    1
    17    26    25    1
    18     1     2    1
    19     2     5    1
    20     5     6    1
    21    25    24    1
    22     8     7   ar
    23     9     7   ar
    24    24    21    1
    25     7     6    1
    26    21    20    1
    27    21    22    1
    28    22    23    2
    29    75    74    2
    30    36    38    1
    31    36    35    1
    32    74    73    1
    33    73    72    1
    34    73    76    1
    35    35    37    1
    36    35    32    1
    37    78    76    1
    38    76    77    1
    39    31    32    1
    40    32    33    1
    41    77    79    1
    42    33    34    2
    43    44    46    1
    44    44    43    1
    45    63    62    2
    46    45    43    1
    47    43    40    1
    48    62    61    1
    49    59    57    1
    50    61    64    1
    51    61    60    1
    52    64    65    1
    53    40    39    1
    54    40    41    1
    55    51    48    1
    56    47    41   am
    57    47    48    1
    58    66    65   ar
    59    66    68   ar
    60    41    42    2
    61    48    49    1
    62    65    67   ar
    63    57    56    1
    64    68    70   ar
    65    58    56    1
    66    56    53    1
    67    67    69   ar
    68    49    50    2
    69    70    69   ar
    70    70    71    1
    71    53    52    1
    72    53    54    1
    73    54    55    2
