@<TRIPOS>MOLECULE
tmp/1l9hA11.pdb
 110 111 0 0 0
SMALL
GASTEIGER

@<TRIPOS>ATOM
      1  N         48.8800   -5.6730   28.2590 N.3    13  PHE13      -0.1241
      2  CA        48.4060   -7.0690   28.3660 C.3    13  PHE13       0.1605
      3  C         47.9420   -7.3100   29.8050 C.2    13  PHE13       0.2264
      4  O         48.6300   -6.9300   30.7430 O.2    13  PHE13      -0.2867
      5  CB        49.5860   -8.0100   28.0350 C.3    13  PHE13       0.0534
      6  CG        49.1930   -9.4260   27.6750 C.ar   13  PHE13      -0.0203
      7  CD1       48.8130   -9.7480   26.3770 C.ar   13  PHE13      -0.0042
      8  CD2       49.2440  -10.4410   28.6260 C.ar   13  PHE13      -0.0042
      9  CE1       48.4900  -11.0590   26.0280 C.ar   13  PHE13      -0.0003
     10  CE2       48.9240  -11.7500   28.2910 C.ar   13  PHE13      -0.0003
     11  CZ        48.5470  -12.0610   26.9880 C.ar   13  PHE13      -0.0000
     12  N         54.2120  -13.7590   24.5810 N.3    30  TYR30      -0.1227
     13  CA        52.8380  -14.1040   24.9140 C.3    30  TYR30       0.1736
     14  C         51.9060  -12.9660   24.4540 C.2    30  TYR30       0.2595
     15  O         50.6880  -13.0800   24.5830 O.2    30  TYR30      -0.2718
     16  CB        52.7270  -14.3570   26.4200 C.3    30  TYR30       0.0548
     17  CG        53.1530  -13.1730   27.2230 C.ar   30  TYR30      -0.0200
     18  CD1       52.2730  -12.1150   27.4280 C.ar   30  TYR30      -0.0009
     19  CD2       54.4680  -13.0390   27.6530 C.ar   30  TYR30      -0.0009
     20  CE1       52.6850  -10.9480   28.0220 C.ar   30  TYR30       0.0417
     21  CE2       54.8960  -11.8700   28.2530 C.ar   30  TYR30       0.0417
     22  CZ        53.9950  -10.8220   28.4290 C.ar   30  TYR30       0.1957
     23  OH        54.3890   -9.6210   28.9760 O.3    30  TYR30      -0.2866
     24  N         52.5040  -11.8920   23.9080 N.am   31  LEU31      -0.1966
     25  CA        51.7970  -10.6830   23.3820 C.3    31  LEU31       0.1728
     26  C         51.4100  -10.8970   21.9270 C.2    31  LEU31       0.2616
     27  O         50.5120  -10.2490   21.3960 O.2    31  LEU31      -0.2715
     28  CB        52.7120   -9.4610   23.4160 C.3    31  LEU31       0.0311
     29  CG        53.0880   -8.8560   24.7460 C.3    31  LEU31       0.0022
     30  CD1       53.9110   -7.6250   24.5110 C.3    31  LEU31       0.0001
     31  CD2       51.8440   -8.5050   25.4930 C.3    31  LEU31       0.0001
     32  N         52.1380  -11.7940   21.2810 N.am   32  ALA32      -0.1963
     33  CA        51.9220  -12.1180   19.8960 C.3    32  ALA32       0.1728
     34  C         52.6950  -13.3810   19.6240 C.2    32  ALA32       0.2616
     35  O         53.1770  -13.9910   20.5560 O.2    32  ALA32      -0.2715
     36  CB        52.4340  -10.9910   19.0360 C.3    32  ALA32       0.0334
     37  N         52.8260  -13.7680   18.3590 N.am   33  GLU33      -0.1977
     38  CA        53.5710  -14.9790   18.0010 C.3    33  GLU33       0.1602
     39  C         55.0380  -14.6100   17.7360 C.2    33  GLU33       0.2287
     40  O         55.3140  -13.5090   17.2810 O.2    33  GLU33      -0.2864
     41  CB        52.9600  -15.6080   16.7490 C.3    33  GLU33       0.0415
     42  CG        51.4470  -15.4190   16.6010 C.3    33  GLU33       0.1163
     43  CD        50.6360  -16.1330   17.6710 C.2    33  GLU33       0.3649
     44  OE1       50.6610  -17.3850   17.7050 O.co2  33  GLU33      -0.2457
     45  OE2       49.9720  -15.4330   18.4760 O.co2  33  GLU33      -0.2457
     46  N         56.0510  -12.7050   14.4050 N.3    36  GLN36      -0.1245
     47  CA        55.7230  -11.3120   14.2100 C.3    36  GLN36       0.1566
     48  C         56.9010  -10.4970   14.6720 C.2    36  GLN36       0.2260
     49  O         57.1550   -9.4140   14.1510 O.2    36  GLN36      -0.2867
     50  CB        54.4710  -10.9800   14.9990 C.3    36  GLN36       0.0367
     51  CG        53.2560  -11.7120   14.4680 C.3    36  GLN36       0.0905
     52  CD        52.0250  -11.5610   15.3420 C.2    36  GLN36       0.2608
     53  OE1       51.9320  -12.1610   16.4030 O.2    36  GLN36      -0.2717
     54  NE2       51.0690  -10.7520   14.8890 N.am   36  GLN36      -0.0878
     55  N         43.6480   -1.6440   25.0680 N.3   278  PHE278     -0.1227
     56  CA        44.2550   -1.7070   23.7510 C.3   278  PHE278      0.1736
     57  C         45.2620   -2.8380   23.7600 C.2   278  PHE278      0.2596
     58  O         45.6480   -3.2990   24.8360 O.2   278  PHE278     -0.2718
     59  CB        44.9200   -0.3760   23.3420 C.3   278  PHE278      0.0547
     60  CG        45.6210    0.3500   24.4570 C.ar  278  PHE278     -0.0202
     61  CD1       44.9640    1.3390   25.1770 C.ar  278  PHE278     -0.0042
     62  CD2       46.9430    0.0590   24.7750 C.ar  278  PHE278     -0.0042
     63  CE1       45.6140    2.0270   26.1980 C.ar  278  PHE278     -0.0003
     64  CE2       47.6030    0.7390   25.7930 C.ar  278  PHE278     -0.0003
     65  CZ        46.9380    1.7240   26.5060 C.ar  278  PHE278     -0.0000
     66  N         45.6730   -3.2980   22.5750 N.am  279  GLY279     -0.1943
     67  CA        46.6120   -4.4080   22.4990 C.3   279  GLY279      0.1998
     68  C         48.0270   -4.0480   22.1120 C.2   279  GLY279      0.2481
     69  O         48.3130   -2.8940   21.7670 O.2   279  GLY279     -0.2729
     70  N         48.9490   -5.0270   22.1630 N.am  280  PRO280     -0.2715
     71  CA        50.3330   -4.7160   21.7930 C.3   280  PRO280      0.1536
     72  C         50.4370   -4.2280   20.3570 C.2   280  PRO280      0.2598
     73  O         51.1830   -3.3320   20.0600 O.2   280  PRO280     -0.2715
     74  CB        51.0680   -6.0410   22.0410 C.3   280  PRO280      0.0310
     75  CG        50.0050   -7.0750   21.8380 C.3   280  PRO280      0.0237
     76  CD        48.7980   -6.4540   22.5080 C.3   280  PRO280      0.0939
     77  N         49.6340   -4.8140   19.4820 N.am  281  ILE281     -0.1964
     78  CA        49.6340   -4.4860   18.0600 C.3   281  ILE281      0.1727
     79  C         49.1470   -3.0800   17.7970 C.2   281  ILE281      0.2616
     80  O         49.4860   -2.4900   16.7840 O.2   281  ILE281     -0.2715
     81  CB        48.7270   -5.4600   17.2900 C.3   281  ILE281      0.0290
     82  CG1       49.1910   -6.9110   17.5220 C.3   281  ILE281      0.0022
     83  CG2       48.6940   -5.0760   15.8260 C.3   281  ILE281      0.0023
     84  CD1       50.6170   -7.2310   17.0710 C.3   281  ILE281      0.0001
     85  N         48.3460   -2.5480   18.7100 N.am  282  PHE282     -0.1974
     86  CA        47.7830   -1.2210   18.5540 C.3   282  PHE282      0.1639
     87  C         48.8220   -0.2210   18.0760 C.2   282  PHE282      0.2290
     88  O         48.7210    0.3070   16.9580 O.2   282  PHE282     -0.2864
     89  CB        47.1750   -0.7740   19.8850 C.3   282  PHE282      0.0560
     90  CG        46.3550    0.4940   19.7970 C.ar  282  PHE282     -0.0200
     91  CD1       45.4990    0.7280   18.7140 C.ar  282  PHE282     -0.0042
     92  CD2       46.4040    1.4430   20.8210 C.ar  282  PHE282     -0.0042
     93  CE1       44.7070    1.8930   18.6600 C.ar  282  PHE282     -0.0003
     94  CE2       45.6180    2.6000   20.7750 C.ar  282  PHE282     -0.0003
     95  CZ        44.7720    2.8250   19.6970 C.ar  282  PHE282     -0.0000
     96  N         52.3150   -0.8750   15.0430 N.3   285  ILE285     -0.1231
     97  CA        52.2630   -0.5020   13.6170 C.3   285  ILE285      0.1678
     98  C         52.6450    0.9670   13.3410 C.2   285  ILE285      0.2434
     99  O         53.5380    1.1900   12.5290 O.2   285  ILE285     -0.2733
    100  CB        50.8680   -0.8090   12.9960 C.3   285  ILE285      0.0265
    101  CG1       50.3560   -2.1840   13.4290 C.3   285  ILE285      0.0019
    102  CG2       50.9920   -0.8670   11.4960 C.3   285  ILE285      0.0020
    103  CD1       51.0310   -3.3180   12.7460 C.3   285  ILE285      0.0001
    104  N         51.9870    1.9720   13.9820 N.am  286  PRO286     -0.2729
    105  CA        52.3580    3.3700   13.7140 C.3   286  PRO286      0.1401
    106  C         53.7020    3.7270   14.2590 C.2   286  PRO286      0.2269
    107  O         54.3190    4.6680   13.7940 O.2   286  PRO286     -0.2865
    108  CB        51.2530    4.1730   14.3850 C.3   286  PRO286      0.0296
    109  CG        50.9110    3.3420   15.5210 C.3   286  PRO286      0.0237
    110  CD        50.8530    1.9370   14.9170 C.3   286  PRO286      0.0939
@<TRIPOS>BOND
     1   102   100    1
     2    99    98    2
     3   103   101    1
     4   100   101    1
     5   100    97    1
     6    98    97    1
     7    98   104   am
     8    97    96    1
     9   105   104    1
    10   105   106    1
    11   105   108    1
    12   107   106    2
    13   104   110    1
    14    49    48    2
    15    47    46    1
    16    47    48    1
    17    47    50    1
    18   108   109    1
    19    51    50    1
    20    51    52    1
    21    54    52   am
    22   110   109    1
    23    52    53    2
    24    83    81    1
    25    42    41    1
    26    42    43    1
    27    41    38    1
    28    80    79    2
    29    88    87    2
    30    84    82    1
    31    40    39    2
    32    81    82    1
    33    81    78    1
    34    43    44   ar
    35    43    45   ar
    36    39    38    1
    37    79    78    1
    38    79    85   am
    39    38    37    1
    40    78    77    1
    41    87    86    1
    42    37    34   am
    43    86    85    1
    44    86    89    1
    45    93    91   ar
    46    93    95   ar
    47    91    90   ar
    48    36    33    1
    49    77    72   am
    50    34    33    1
    51    34    35    2
    52    95    94   ar
    53    90    89    1
    54    90    92   ar
    55    33    32    1
    56    73    72    2
    57    72    71    1
    58    94    92   ar
    59    32    26   am
    60    27    26    2
    61    69    68    2
    62    71    74    1
    63    71    70    1
    64    75    74    1
    65    75    76    1
    66    26    25    1
    67    68    70   am
    68    68    67    1
    69    70    76    1
    70    67    66    1
    71    66    57   am
    72    59    56    1
    73    59    60    1
    74    25    28    1
    75    25    24    1
    76    28    29    1
    77    56    57    1
    78    56    55    1
    79    57    58    2
    80    24    14   am
    81    14    15    2
    82    14    13    1
    83    60    62   ar
    84    60    61   ar
    85    30    29    1
    86    12    13    1
    87    29    31    1
    88    62    64   ar
    89    13    16    1
    90    61    63   ar
    91    64    65   ar
    92     9     7   ar
    93     9    11   ar
    94    63    65   ar
    95     7     6   ar
    96    16    17    1
    97    11    10   ar
    98    17    18   ar
    99    17    19   ar
   100    18    20   ar
   101    19    21   ar
   102     6     5    1
   103     6     8   ar
   104    20    22   ar
   105     5     2    1
   106    21    22   ar
   107     1     2    1
   108    10     8   ar
   109     2     3    1
   110    22    23    1
   111     3     4    2
