@<TRIPOS>MOLECULE
tmp/1l9nA00.pdb
 113 106 0 0 0
SMALL
GASTEIGER

@<TRIPOS>ATOM
      1  N        -17.8050   39.7820  -21.9010 N.3   166  SER166     -0.1217
      2  CA       -18.2560   39.3560  -23.2250 C.3   166  SER166      0.1889
      3  C        -17.3830   40.0360  -24.2620 C.2   166  SER166      0.2288
      4  O        -16.6560   40.9700  -23.9340 O.2   166  SER166     -0.2866
      5  CB       -19.7160   39.7550  -23.4520 C.3   166  SER166      0.2089
      6  OG       -19.8550   41.1640  -23.4910 O.3   166  SER166     -0.2183
      7  N        -18.0840   42.1130  -26.3320 N.3   168  ASN168     -0.1225
      8  CA       -18.4630   43.5080  -26.5180 C.3   168  ASN168      0.1785
      9  C        -18.0390   44.3880  -25.3460 C.2   168  ASN168      0.2597
     10  O        -18.0040   45.6150  -25.4520 O.2   168  ASN168     -0.2718
     11  CB       -19.9730   43.6090  -26.7210 C.3   168  ASN168      0.1169
     12  CG       -20.4070   43.0780  -28.0670 C.2   168  ASN168      0.2627
     13  OD1      -21.5640   42.7260  -28.2630 O.2   168  ASN168     -0.2716
     14  ND2      -19.4750   43.0260  -29.0080 N.am  168  ASN168     -0.0877
     15  N        -17.7270   43.7570  -24.2220 N.am  169  ARG169     -0.1979
     16  CA       -17.3030   44.4930  -23.0430 C.3   169  ARG169      0.1597
     17  C        -16.5010   43.5360  -22.1770 C.2   169  ARG169      0.2287
     18  O        -17.0530   42.8330  -21.3270 O.2   169  ARG169     -0.2864
     19  CB       -18.5240   45.0170  -22.2820 C.3   169  ARG169      0.0334
     20  CG       -18.2170   46.0750  -21.2190 C.3   169  ARG169      0.0492
     21  CD       -19.5080   46.5440  -20.5450 C.3   169  ARG169      0.2205
     22  NE       -19.3120   47.6790  -19.6450 N.pl3 169  ARG169     -0.0865
     23  CZ       -18.9440   48.8970  -20.0380 C.cat 169  ARG169      0.5346
     24  NH1      -18.7270   49.1520  -21.3240 N.pl3 169  ARG169      0.1354
     25  NH2      -18.7960   49.8660  -19.1450 N.pl3 169  ARG169      0.1354
     26  N        -29.3590   45.1170  -37.0090 N.3   466  LYS466     -0.1245
     27  CA       -28.3430   45.2310  -35.9780 C.3   466  LYS466      0.1561
     28  C        -28.9320   45.7550  -34.6720 C.2   466  LYS466      0.2260
     29  O        -29.7660   46.6630  -34.6740 O.2   466  LYS466     -0.2867
     30  CB       -27.2420   46.1860  -36.4450 C.3   466  LYS466      0.0271
     31  CG       -26.0120   46.1850  -35.5600 C.3   466  LYS466      0.0035
     32  CD       -25.0330   47.2840  -35.9440 C.3   466  LYS466      0.0206
     33  CE       -23.7110   47.0910  -35.2170 C.3   466  LYS466      0.1093
     34  NZ       -23.9060   46.8250  -33.7570 N.3   466  LYS466     -0.1314
     35  N        -28.2440   47.7280  -31.2790 N.3   468  LYS468     -0.1231
     36  CA       -27.2810   48.6620  -30.7090 C.3   468  LYS468      0.1693
     37  C        -27.6580   49.0650  -29.2900 C.2   468  LYS468      0.2591
     38  O        -28.8370   49.1840  -28.9590 O.2   468  LYS468     -0.2718
     39  CB       -27.1690   49.9220  -31.5750 C.3   468  LYS468      0.0285
     40  CG       -26.8340   49.6540  -33.0410 C.3   468  LYS468      0.0035
     41  CD       -25.9940   50.7840  -33.6410 C.3   468  LYS468      0.0206
     42  CE       -26.6550   52.1480  -33.5000 C.3   468  LYS468      0.1093
     43  NZ       -25.7340   53.2350  -33.9360 N.3   468  LYS468     -0.1314
     44  N        -26.6470   49.2800  -28.4560 N.am  469  VAL469     -0.1980
     45  CA       -26.8760   49.6810  -27.0750 C.3   469  VAL469      0.1595
     46  C        -26.9860   51.1980  -26.9840 C.2   469  VAL469      0.2287
     47  O        -26.1760   51.9220  -27.5640 O.2   469  VAL469     -0.2864
     48  CB       -25.7260   49.2250  -26.1600 C.3   469  VAL469      0.0276
     49  CG1      -25.9080   49.8160  -24.7600 C.3   469  VAL469      0.0022
     50  CG2      -25.6860   47.7100  -26.1060 C.3   469  VAL469      0.0022
     51  N        -27.0260   54.1810  -24.2510 N.3   471  GLY471     -0.1210
     52  CA       -26.8260   54.5610  -22.8680 C.3   471  GLY471      0.1956
     53  C        -26.3120   53.4590  -21.9650 C.2   471  GLY471      0.2612
     54  O        -26.2100   52.2980  -22.3570 O.2   471  GLY471     -0.2717
     55  N        -25.9900   53.8430  -20.7360 N.am  472  MET472     -0.1965
     56  CA       -25.4720   52.9270  -19.7320 C.3   472  MET472      0.1736
     57  C        -26.3150   51.6880  -19.4840 C.2   472  MET472      0.2616
     58  O        -27.5400   51.7260  -19.5290 O.2   472  MET472     -0.2715
     59  CB       -25.3250   53.6450  -18.3960 C.3   472  MET472      0.0427
     60  CG       -24.1530   54.5910  -18.2800 C.3   472  MET472      0.0599
     61  SD       -24.1920   55.3820  -16.6520 S.3   472  MET472     -0.1393
     62  CE       -24.4580   53.9380  -15.5410 C.3   472  MET472      0.0692
     63  N        -25.6280   50.5900  -19.2070 N.am  473  LEU473     -0.1977
     64  CA       -26.2660   49.3270  -18.8800 C.3   473  LEU473      0.1596
     65  C        -25.7010   48.9780  -17.5050 C.2   473  LEU473      0.2287
     66  O        -24.5160   48.6810  -17.3690 O.2   473  LEU473     -0.2864
     67  CB       -25.9020   48.2450  -19.8990 C.3   473  LEU473      0.0297
     68  CG       -26.5480   48.3600  -21.2830 C.3   473  LEU473      0.0022
     69  CD1      -26.1180   47.1920  -22.1540 C.3   473  LEU473      0.0001
     70  CD2      -28.0540   48.3710  -21.1350 C.3   473  LEU473      0.0001
     71  N        -27.6550   39.6460  -29.9460 N.3   568  ARG568     -0.1231
     72  CA       -26.8610   40.5280  -29.1090 C.3   568  ARG568      0.1694
     73  C        -26.9760   40.1600  -27.6300 C.2   568  ARG568      0.2592
     74  O        -28.0680   40.1100  -27.0640 O.2   568  ARG568     -0.2718
     75  CB       -27.2910   41.9860  -29.3330 C.3   568  ARG568      0.0321
     76  CG       -26.5130   43.0440  -28.5500 C.3   568  ARG568      0.0489
     77  CD       -25.0660   43.1530  -28.9880 C.3   568  ARG568      0.2205
     78  NE       -24.3490   44.2140  -28.2760 N.pl3 568  ARG568     -0.0865
     79  CZ       -24.1780   45.4520  -28.7320 C.cat 568  ARG568      0.5346
     80  NH1      -23.5110   46.3370  -28.0070 N.pl3 568  ARG568      0.1354
     81  NH2      -24.6570   45.8070  -29.9160 N.pl3 568  ARG568      0.1354
     82  N        -25.8320   39.8730  -27.0200 N.am  569  ASP569     -0.1960
     83  CA       -25.7670   39.5400  -25.6040 C.3   569  ASP569      0.1840
     84  C        -25.2150   40.7770  -24.9030 C.2   569  ASP569      0.2622
     85  O        -24.1290   41.2540  -25.2340 O.2   569  ASP569     -0.2715
     86  CB       -24.8350   38.3470  -25.3750 C.3   569  ASP569      0.1450
     87  CG       -25.5700   37.0160  -25.3680 C.2   569  ASP569      0.3671
     88  OD1      -26.7110   36.9490  -25.8660 O.co2 569  ASP569     -0.2456
     89  OD2      -24.9960   36.0250  -24.8670 O.co2 569  ASP569     -0.2456
     90  N        -25.9690   41.3100  -23.9500 N.am  570  ILE570     -0.1963
     91  CA       -25.5270   42.4910  -23.2300 C.3   570  ILE570      0.1727
     92  C        -25.2280   42.1660  -21.7700 C.2   570  ILE570      0.2616
     93  O        -25.8220   41.2530  -21.1910 O.2   570  ILE570     -0.2715
     94  CB       -26.5960   43.5950  -23.2800 C.3   570  ILE570      0.0290
     95  CG1      -27.8410   43.1520  -22.5050 C.3   570  ILE570      0.0022
     96  CG2      -26.9450   43.9080  -24.7350 C.3   570  ILE570      0.0023
     97  CD1      -28.9480   44.1840  -22.4950 C.3   570  ILE570      0.0001
     98  N        -24.2990   42.9120  -21.1800 N.am  571  ILE571     -0.1977
     99  CA       -23.9430   42.6990  -19.7850 C.3   571  ILE571      0.1596
    100  C        -24.0790   44.0000  -18.9820 C.2   571  ILE571      0.2287
    101  O        -23.4770   45.0270  -19.3040 O.2   571  ILE571     -0.2864
    102  CB       -22.5050   42.1220  -19.6630 C.3   571  ILE571      0.0276
    103  CG1      -22.1390   41.9360  -18.1870 C.3   571  ILE571      0.0022
    104  CG2      -21.5160   43.0320  -20.3590 C.3   571  ILE571      0.0022
    105  CD1      -20.7600   41.3420  -17.9690 C.3   571  ILE571      0.0001
    106  N        -23.4640   46.4110  -15.8640 N.3   573  ASP573     -0.1239
    107  CA       -22.4220   46.6070  -14.8550 C.3   573  ASP573      0.1674
    108  C        -23.0360   46.6020  -13.4610 C.2   573  ASP573      0.2266
    109  O        -24.1900   46.9860  -13.2800 O.2   573  ASP573     -0.2867
    110  CB       -21.6960   47.9480  -15.0480 C.3   573  ASP573      0.1410
    111  CG       -21.0200   48.0690  -16.4050 C.2   573  ASP573      0.3668
    112  OD1      -20.3920   47.0890  -16.8560 O.co2 573  ASP573     -0.2456
    113  OD2      -21.1080   49.1550  -17.0150 O.co2 573  ASP573     -0.2456
@<TRIPOS>BOND
     1    26    27    1
     2    30    27    1
     3    30    31    1
     4    27    28    1
     5    32    31    1
     6    32    33    1
     7    33    34    1
     8    29    28    2
     9    43    42    1
    10    41    42    1
    11    41    40    1
    12    40    39    1
    13    39    36    1
    14    35    36    1
    15    36    37    1
    16    71    72    1
    17    81    79    1
    18    75    72    1
    19    75    76    1
    20    37    38    2
    21    37    44   am
    22    72    73    1
    23    14    12   am
    24    77    76    1
    25    77    78    1
    26    79    78    2
    27    79    80    1
    28    44    45    1
    29    13    12    2
    30    12    11    1
    31    73    74    2
    32    73    82   am
    33    47    46    2
    34    45    46    1
    35    45    48    1
    36    82    83    1
    37    11     8    1
    38     8     7    1
    39     8     9    1
    40    48    50    1
    41    48    49    1
    42    88    87   ar
    43    83    86    1
    44    83    84    1
    45    10     9    2
    46    86    87    1
    47    87    89   ar
    48     9    15   am
    49    85    84    2
    50    84    90   am
    51    96    94    1
    52     3     4    2
    53     3     2    1
    54    51    52    1
    55    15    16    1
    56    90    91    1
    57     6     5    1
    58     5     2    1
    59    94    91    1
    60    94    95    1
    61    91    92    1
    62     2     1    1
    63    16    19    1
    64    16    17    1
    65    52    53    1
    66    95    97    1
    67    54    53    2
    68    19    20    1
    69    17    18    2
    70    69    68    1
    71    53    55   am
    72    92    93    2
    73    92    98   am
    74    24    23    1
    75    68    70    1
    76    68    67    1
    77    20    21    1
    78    98    99    1
    79    55    56    1
    80    21    22    1
    81   104   102    1
    82    23    22    2
    83    23    25    1
    84    67    64    1
    85    99   102    1
    86    99   100    1
    87    56    57    1
    88    56    59    1
    89   102   103    1
    90    58    57    2
    91    57    63   am
    92   101   100    2
    93    63    64    1
    94    64    65    1
    95    59    60    1
    96    60    61    1
    97   103   105    1
    98    65    66    2
    99   113   111   ar
   100   112   111   ar
   101    61    62    1
   102   111   110    1
   103   106   107    1
   104   110   107    1
   105   107   108    1
   106   108   109    2
