@<TRIPOS>MOLECULE
tmp/1la3A00.pdb
 186 184 0 0 0
SMALL
GASTEIGER

@<TRIPOS>ATOM
      1  N        -20.8900   13.9360   -2.7460 N.3     1  GLY1       -0.1210
      2  CA       -22.2300   13.9970   -3.3940 C.3     1  GLY1        0.1956
      3  C        -22.2610   13.1080   -4.6380 C.2     1  GLY1        0.2611
      4  O        -23.2650   12.4940   -4.9410 O.2     1  GLY1       -0.2717
      5  N        -21.1560   13.0560   -5.3340 N.am    2  ASN2       -0.1974
      6  CA       -21.1040   12.2170   -6.5560 C.3     2  ASN2        0.1688
      7  C        -20.5710   10.8260   -6.2350 C.2     2  ASN2        0.2292
      8  O        -19.4230   10.6670   -5.8720 O.2     2  ASN2       -0.2864
      9  CB       -20.1600   12.8880   -7.5650 C.3     2  ASN2        0.1181
     10  CG       -20.8230   14.1540   -8.1090 C.2     2  ASN2        0.2629
     11  OD1      -20.3960   14.7160   -9.0980 O.2     2  ASN2       -0.2716
     12  ND2      -21.8690   14.6350   -7.4940 N.am    2  ASN2       -0.0877
     13  N        -17.2500    9.9540   -7.6590 N.3     5  SER5       -0.1202
     14  CA       -16.0860   10.5240   -6.9410 C.3     5  SER5        0.2020
     15  C        -15.8000    9.7290   -5.6760 C.2     5  SER5        0.2619
     16  O        -14.7410    9.8440   -5.0920 O.2     5  SER5       -0.2717
     17  CB       -16.4140   11.9750   -6.5530 C.3     5  SER5        0.2103
     18  OG       -15.3100   12.3790   -5.7570 O.3     5  SER5       -0.2182
     19  N        -16.7530    8.9310   -5.2780 N.am    6  GLY6       -0.1956
     20  CA       -16.5550    8.1180   -4.0510 C.3     6  GLY6        0.1869
     21  C        -15.6000    6.9670   -4.3480 C.2     6  GLY6        0.2309
     22  O        -14.8620    6.5270   -3.4890 O.2     6  GLY6       -0.2863
     23  N        -12.1820    6.9680   -3.3330 N.3     9  SER9       -0.1217
     24  CA       -11.8900    6.6960   -1.9060 C.3     9  SER9        0.1889
     25  C        -11.5120    5.2350   -1.7120 C.2     9  SER9        0.2288
     26  O        -10.5290    4.9250   -1.0690 O.2     9  SER9       -0.2866
     27  CB       -13.1520    6.9960   -1.0830 C.3     9  SER9        0.2089
     28  OG       -12.6550    7.3150    0.2090 O.3     9  SER9       -0.2183
     29  N         -7.8550    4.3400   -0.6650 N.3    13  LEU13      -0.1245
     30  CA        -7.7150    3.6320    0.6220 C.3    13  LEU13       0.1561
     31  C         -7.2070    2.2170    0.3930 C.2    13  LEU13       0.2260
     32  O         -6.3690    1.7320    1.1250 O.2    13  LEU13      -0.2867
     33  CB        -9.0910    3.5720    1.2990 C.3    13  LEU13       0.0270
     34  CG        -9.3840    4.9290    1.9440 C.3    13  LEU13       0.0019
     35  CD1      -10.8930    5.0730    2.1540 C.3    13  LEU13       0.0001
     36  CD2       -8.6770    5.0050    3.2990 C.3    13  LEU13       0.0001
     37  N        -20.7440    4.1030    0.7560 N.3    27  LEU27      -0.1231
     38  CA       -20.0250    5.1110    1.5710 C.3    27  LEU27       0.1693
     39  C        -20.5130    6.5120    1.2350 C.2    27  LEU27       0.2592
     40  O        -20.5870    7.3690    2.0930 O.2    27  LEU27      -0.2718
     41  CB       -18.5240    5.0250    1.2480 C.3    27  LEU27       0.0284
     42  CG       -17.9850    3.6640    1.6900 C.3    27  LEU27       0.0019
     43  CD1      -16.7090    3.3560    0.9080 C.3    27  LEU27       0.0001
     44  CD2      -17.6580    3.7100    3.1850 C.3    27  LEU27       0.0001
     45  N        -20.8390    6.7210   -0.0110 N.am   28  SER28      -0.1952
     46  CA       -21.3250    8.0580   -0.4200 C.3    28  SER28       0.1924
     47  C        -22.5950    8.4180    0.3370 C.2    28  SER28       0.2314
     48  O        -22.7160    9.5020    0.8710 O.2    28  SER28      -0.2863
     49  CB       -21.6330    8.0230   -1.9250 C.3    28  SER28       0.2116
     50  OG       -20.4270    7.5570   -2.5140 O.3    28  SER28      -0.2180
     51  N        -23.5900    7.1330    3.0700 N.3    30  TRP30      -0.1227
     52  CA       -23.2810    7.1930    4.5180 C.3    30  TRP30       0.1737
     53  C        -22.4390    8.4210    4.8350 C.2    30  TRP30       0.2595
     54  O        -22.6360    9.0740    5.8420 O.2    30  TRP30      -0.2718
     55  CB       -22.4810    5.9360    4.9000 C.3    30  TRP30       0.0564
     56  CG       -22.0180    6.0600    6.3520 C.ar   30  TRP30       0.0003
     57  CD1      -22.7510    5.7110    7.3990 C.ar   30  TRP30       0.0946
     58  CD2      -20.8610    6.5530    6.7270 C.ar   30  TRP30       0.0152
     59  NE1      -21.9720    6.0230    8.4500 N.ar   30  TRP30      -0.2442
     60  CE2      -20.7510    6.5670    8.1050 C.ar   30  TRP30       0.0810
     61  CE3      -19.8120    7.0260    5.9520 C.ar   30  TRP30       0.0012
     62  CZ2      -19.6110    7.0510    8.7060 C.ar   30  TRP30       0.0191
     63  CZ3      -18.6690    7.5100    6.5580 C.ar   30  TRP30       0.0001
     64  CH2      -18.5700    7.5210    7.9350 C.ar   30  TRP30       0.0015
     65  N        -21.5180    8.7140    3.9630 N.am   31  TYR31      -0.1962
     66  CA       -20.6460    9.8910    4.1820 C.3    31  TYR31       0.1771
     67  C        -21.4590   11.1770    4.2100 C.2    31  TYR31       0.2619
     68  O        -21.3210   11.9790    5.1020 O.2    31  TYR31      -0.2715
     69  CB       -19.6410    9.9560    3.0190 C.3    31  TYR31       0.0574
     70  CG       -18.7890   11.2210    3.1370 C.ar   31  TYR31      -0.0198
     71  CD1      -17.6350   11.2220    3.8950 C.ar   31  TYR31      -0.0009
     72  CD2      -19.1520   12.3740    2.4720 C.ar   31  TYR31      -0.0009
     73  CE1      -16.8570   12.3590    3.9850 C.ar   31  TYR31       0.0417
     74  CE2      -18.3740   13.5090    2.5620 C.ar   31  TYR31       0.0417
     75  CZ       -17.2210   13.5100    3.3190 C.ar   31  TYR31       0.1957
     76  OH       -16.4420   14.6450    3.4070 O.3    31  TYR31      -0.2866
     77  N        -22.2920   11.3530    3.2330 N.am   32  GLN32      -0.1977
     78  CA       -23.1130   12.5840    3.2010 C.3    32  GLN32       0.1601
     79  C        -24.1150   12.6020    4.3490 C.2    32  GLN32       0.2287
     80  O        -24.3400   13.6230    4.9620 O.2    32  GLN32      -0.2864
     81  CB       -23.8840   12.6080    1.8690 C.3    32  GLN32       0.0394
     82  CG       -23.3800   13.7720    1.0170 C.3    32  GLN32       0.0908
     83  CD       -23.6480   15.0850    1.7480 C.2    32  GLN32       0.2608
     84  OE1      -24.7440   15.3430    2.2050 O.2    32  GLN32      -0.2717
     85  NE2      -22.6750   15.9440    1.8820 N.am   32  GLN32      -0.0878
     86  N        -15.4500    8.2090   16.1590 N.3    48  PHE48      -0.1241
     87  CA       -14.4560    7.8410   15.1310 C.3    48  PHE48       0.1605
     88  C        -14.1030    6.3650   15.2420 C.2    48  PHE48       0.2264
     89  O        -14.1870    5.6260   14.2820 O.2    48  PHE48      -0.2867
     90  CB       -13.1810    8.6590   15.3580 C.3    48  PHE48       0.0534
     91  CG       -12.0980    8.1420   14.4160 C.ar   48  PHE48      -0.0203
     92  CD1      -12.2060    8.3420   13.0500 C.ar   48  PHE48      -0.0042
     93  CD2      -11.0110    7.4450   14.9100 C.ar   48  PHE48      -0.0042
     94  CE1      -11.2420    7.8500   12.1950 C.ar   48  PHE48      -0.0003
     95  CE2      -10.0480    6.9540   14.0520 C.ar   48  PHE48      -0.0003
     96  CZ       -10.1640    7.1550   12.6980 C.ar   48  PHE48      -0.0000
     97  N        -16.5820    4.0400   13.6540 N.3    51  ILE51      -0.1231
     98  CA       -16.4590    4.0570   12.1820 C.3    51  ILE51       0.1692
     99  C        -15.1630    3.3950   11.7540 C.2    51  ILE51       0.2592
    100  O        -15.1160    2.6890   10.7680 O.2    51  ILE51      -0.2718
    101  CB       -16.4440    5.5090   11.7240 C.3    51  ILE51       0.0266
    102  CG1      -17.7520    6.1740   12.1090 C.3    51  ILE51       0.0019
    103  CG2      -16.3090    5.5390   10.1960 C.3    51  ILE51       0.0020
    104  CD1      -17.5200    7.6740   12.2820 C.3    51  ILE51       0.0001
    105  N        -14.1340    3.6380   12.5090 N.am   52  TYR52      -0.1976
    106  CA       -12.8250    3.0380   12.1770 C.3    52  TYR52       0.1639
    107  C        -12.9030    1.5140   12.2780 C.2    52  TYR52       0.2290
    108  O        -12.5470    0.8000   11.3620 O.2    52  TYR52      -0.2864
    109  CB       -11.8040    3.5620   13.2150 C.3    52  TYR52       0.0560
    110  CG       -10.3410    3.2470   12.8070 C.ar   52  TYR52      -0.0198
    111  CD1      -10.0280    2.5470   11.6470 C.ar   52  TYR52      -0.0009
    112  CD2       -9.3080    3.6570   13.6260 C.ar   52  TYR52      -0.0009
    113  CE1       -8.7130    2.2740   11.3280 C.ar   52  TYR52       0.0417
    114  CE2       -7.9970    3.3810   13.3000 C.ar   52  TYR52       0.0417
    115  CZ        -7.6910    2.6880   12.1510 C.ar   52  TYR52       0.1957
    116  OH        -6.3790    2.4050   11.8340 O.3    52  TYR52      -0.2866
    117  N        -15.2710    0.1350    9.6060 N.3    55  PHE55      -0.1227
    118  CA       -14.8030    0.1850    8.1930 C.3    55  PHE55       0.1736
    119  C        -13.5150   -0.6120    8.0070 C.2    55  PHE55       0.2595
    120  O        -13.3720   -1.3420    7.0450 O.2    55  PHE55      -0.2718
    121  CB       -14.5200    1.6550    7.8310 C.3    55  PHE55       0.0547
    122  CG       -15.8180    2.3400    7.3850 C.ar   55  PHE55      -0.0202
    123  CD1      -17.0490    1.8820    7.8260 C.ar   55  PHE55      -0.0042
    124  CD2      -15.7740    3.4360    6.5380 C.ar   55  PHE55      -0.0042
    125  CE1      -18.2130    2.5120    7.4250 C.ar   55  PHE55      -0.0003
    126  CE2      -16.9380    4.0600    6.1400 C.ar   55  PHE55      -0.0003
    127  CZ       -18.1550    3.5990    6.5820 C.ar   55  PHE55      -0.0000
    128  N        -12.6040   -0.4560    8.9380 N.am   56  PHE56      -0.1976
    129  CA       -11.3040   -1.1890    8.8480 C.3    56  PHE56       0.1639
    130  C        -11.0460   -2.0270   10.1040 C.2    56  PHE56       0.2290
    131  O        -10.3660   -1.5950   11.0170 O.2    56  PHE56      -0.2864
    132  CB       -10.1930   -0.1370    8.7170 C.3    56  PHE56       0.0560
    133  CG       -10.6500    0.9400    7.7290 C.ar   56  PHE56      -0.0200
    134  CD1      -11.2220    0.5840    6.5190 C.ar   56  PHE56      -0.0042
    135  CD2      -10.5130    2.2830    8.0380 C.ar   56  PHE56      -0.0042
    136  CE1      -11.6510    1.5550    5.6360 C.ar   56  PHE56      -0.0003
    137  CE2      -10.9430    3.2500    7.1520 C.ar   56  PHE56      -0.0003
    138  CZ       -11.5120    2.8850    5.9530 C.ar   56  PHE56      -0.0000
    139  N        -14.5330   15.7510   10.3490 N.3    82  PHE82      -0.1241
    140  CA       -14.3580   14.3940    9.7840 C.3    82  PHE82       0.1605
    141  C        -13.8970   14.4930    8.3420 C.2    82  PHE82       0.2264
    142  O        -13.1350   13.6720    7.8700 O.2    82  PHE82      -0.2867
    143  CB       -15.7110   13.6650    9.8320 C.3    82  PHE82       0.0534
    144  CG       -15.5630   12.2730    9.2150 C.ar   82  PHE82      -0.0203
    145  CD1      -14.9290   11.2580    9.9130 C.ar   82  PHE82      -0.0042
    146  CD2      -16.0670   12.0080    7.9540 C.ar   82  PHE82      -0.0042
    147  CE1      -14.8040   10.0020    9.3560 C.ar   82  PHE82      -0.0003
    148  CE2      -15.9390   10.7500    7.4020 C.ar   82  PHE82      -0.0003
    149  CZ       -15.3080    9.7490    8.1020 C.ar   82  PHE82      -0.0000
    150  N        -10.3980   15.4870    8.1580 N.3    85  TYR85      -0.1227
    151  CA        -9.6730   14.3200    8.7000 C.3    85  TYR85       0.1736
    152  C         -9.5300   13.2660    7.6180 C.2    85  TYR85       0.2595
    153  O         -8.4470   12.7840    7.3520 O.2    85  TYR85      -0.2718
    154  CB       -10.4890   13.7220    9.8580 C.3    85  TYR85       0.0548
    155  CG       -10.0720   12.2620   10.0520 C.ar   85  TYR85      -0.0200
    156  CD1       -8.9430   11.9450   10.7800 C.ar   85  TYR85      -0.0009
    157  CD2      -10.7990   11.2430    9.4720 C.ar   85  TYR85      -0.0009
    158  CE1       -8.5490   10.6300   10.9230 C.ar   85  TYR85       0.0417
    159  CE2      -10.4040    9.9300    9.6160 C.ar   85  TYR85       0.0417
    160  CZ        -9.2760    9.6150   10.3430 C.ar   85  TYR85       0.1957
    161  OH        -8.8800    8.3040   10.4860 O.3    85  TYR85      -0.2866
    162  N        -10.6380   12.9230    7.0100 N.am   86  VAL86      -0.1980
    163  CA       -10.5920   11.9040    5.9410 C.3    86  VAL86       0.1595
    164  C         -9.5040   12.2550    4.9410 C.2    86  VAL86       0.2287
    165  O         -8.7700   11.3990    4.4900 O.2    86  VAL86      -0.2864
    166  CB       -11.9550   11.8870    5.2200 C.3    86  VAL86       0.0276
    167  CG1      -11.7640   11.4010    3.7790 C.3    86  VAL86       0.0022
    168  CG2      -12.8990   10.9280    5.9490 C.3    86  VAL86       0.0022
    169  N         -6.2610   11.2720    5.9670 N.3    89  LEU89      -0.1231
    170  CA        -6.0870    9.8020    5.9070 C.3    89  LEU89       0.1693
    171  C         -5.7700    9.3690    4.4820 C.2    89  LEU89       0.2592
    172  O         -5.0400    8.4230    4.2640 O.2    89  LEU89      -0.2718
    173  CB        -7.4110    9.1370    6.3470 C.3    89  LEU89       0.0284
    174  CG        -7.1530    8.2330    7.5560 C.3    89  LEU89       0.0019
    175  CD1       -6.2770    7.0510    7.1280 C.3    89  LEU89       0.0001
    176  CD2       -6.4290    9.0340    8.6360 C.3    89  LEU89       0.0001
    177  N         -6.3300   10.0750    3.5370 N.am   90  HIS90      -0.1976
    178  CA        -6.0790    9.7280    2.1200 C.3    90  HIS90       0.1656
    179  C         -4.8640   10.4740    1.5810 C.2    90  HIS90       0.2291
    180  O         -4.1200    9.9510    0.7760 O.2    90  HIS90      -0.2864
    181  CB        -7.3110   10.1320    1.2980 C.3    90  HIS90       0.0771
    182  CG        -8.5020    9.2670    1.7160 C.ar   90  HIS90       0.0820
    183  ND1       -9.0300    9.2790    2.8470 N.ar   90  HIS90      -0.2267
    184  CD2       -9.2130    8.3350    0.9850 C.ar   90  HIS90       0.1154
    185  CE1       -9.9970    8.4610    2.9160 C.ar   90  HIS90       0.1986
    186  NE2      -10.1920    7.8070    1.7710 N.ar   90  HIS90      -0.2212
@<TRIPOS>BOND
     1    11    10    2
     2    10     9    1
     3    10    12   am
     4    13    14    1
     5     9     6    1
     6    14    17    1
     7    14    15    1
     8     6     7    1
     9     6     5    1
    10    17    18    1
    11     7     8    2
    12    15    19   am
    13    15    16    2
    14     5     3   am
    15    19    20    1
    16     4     3    2
    17     3     2    1
    18    21    20    1
    19    21    22    2
    20     2     1    1
    21    23    24    1
    22    50    49    1
    23    49    46    1
    24    24    25    1
    25    24    27    1
    26    25    26    2
    27    27    28    1
    28    29    30    1
    29    46    45    1
    30    46    47    1
    31    45    39   am
    32    47    48    2
    33    31    30    1
    34    31    32    2
    35    30    33    1
    36    37    38    1
    37   180   179    2
    38    43    42    1
    39   184   182   ar
    40   184   186   ar
    41    82    83    1
    42    82    81    1
    43    39    38    1
    44    39    40    2
    45    41    38    1
    46    41    42    1
    47   181   182    1
    48   181   178    1
    49    33    34    1
    50   179   178    1
    51    42    44    1
    52   182   183   ar
    53    83    85   am
    54    83    84    2
    55   186   185   ar
    56    81    78    1
    57    34    35    1
    58    34    36    1
    59   178   177    1
    60    72    74   ar
    61    72    70   ar
    62    74    75   ar
    63   183   185   ar
    64    69    70    1
    65    69    66    1
    66    51    52    1
    67    70    71   ar
    68    78    77    1
    69    78    79    1
    70    77    67   am
    71    75    76    1
    72    75    73   ar
    73   177   171   am
    74   167   166    1
    75    71    73   ar
    76    65    66    1
    77    65    53   am
    78    66    67    1
    79    67    68    2
    80   172   171    2
    81    79    80    2
    82   171   170    1
    83   165   164    2
    84    52    53    1
    85    52    55    1
    86    53    54    2
    87    55    56    1
    88   164   163    1
    89   166   163    1
    90   166   168    1
    91   136   138   ar
    92   136   134   ar
    93   170   169    1
    94   170   173    1
    95   163   162    1
    96    61    63   ar
    97    61    58   ar
    98   138   137   ar
    99   126   124   ar
   100   126   127   ar
   101   173   174    1
   102    56    58   ar
   103    56    57   ar
   104   134   133   ar
   105   124   122   ar
   106    63    64   ar
   107   127   125   ar
   108    58    60   ar
   109   162   152   am
   110   120   119    2
   111   175   174    1
   112   137   135   ar
   113   153   152    2
   114   122   123   ar
   115   122   121    1
   116    57    59   ar
   117   148   146   ar
   118   148   149   ar
   119   125   123   ar
   120   174   176    1
   121   152   151    1
   122   133   135   ar
   123   133   132    1
   124   121   118    1
   125   142   141    2
   126    64    62   ar
   127   146   144   ar
   128   119   118    1
   129   119   128   am
   130   149   147   ar
   131    60    59   ar
   132    60    62   ar
   133   150   151    1
   134   118   117    1
   135   141   140    1
   136   151   154    1
   137   132   129    1
   138   129   128    1
   139   129   130    1
   140   144   143    1
   141   144   145   ar
   142   147   145   ar
   143   157   159   ar
   144   157   155   ar
   145   159   160   ar
   146   140   143    1
   147   140   139    1
   148   154   155    1
   149   155   156   ar
   150   130   131    2
   151   103   101    1
   152   160   161    1
   153   160   158   ar
   154   100    99    2
   155   156   158   ar
   156   113   111   ar
   157   113   115   ar
   158   108   107    2
   159   111   110   ar
   160   101   102    1
   161   101    98    1
   162    99    98    1
   163    99   105   am
   164   116   115    1
   165   102   104    1
   166   115   114   ar
   167   106   107    1
   168   106   105    1
   169   106   109    1
   170    98    97    1
   171    94    96   ar
   172    94    92   ar
   173    96    95   ar
   174   110   109    1
   175   110   112   ar
   176    92    91   ar
   177   114   112   ar
   178    95    93   ar
   179    89    88    2
   180    91    93   ar
   181    91    90    1
   182    87    88    1
   183    87    90    1
   184    87    86    1
