@<TRIPOS>MOLECULE
tmp/1lagA00.pdb
 111 104 0 0 0
SMALL
GASTEIGER

@<TRIPOS>ATOM
      1  N         40.8860   27.5090   73.9550 N.3    11  ASP11      -0.1239
      2  CA        41.4870   26.7120   72.9380 C.3    11  ASP11       0.1674
      3  C         42.2300   27.7720   72.1360 C.2    11  ASP11       0.2266
      4  O         41.7000   28.5990   71.3770 O.2    11  ASP11      -0.2867
      5  CB        40.3830   25.9880   72.1480 C.3    11  ASP11       0.1410
      6  CG        40.6940   25.7810   70.6700 C.2    11  ASP11       0.3668
      7  OD1       41.7840   25.3060   70.3260 O.co2  11  ASP11      -0.2456
      8  OD2       39.8490   26.1620   69.8590 O.co2  11  ASP11      -0.2456
      9  N         42.6270   29.9170   67.8470 N.3    14  TYR14      -0.1241
     10  CA        41.5760   30.6690   67.1940 C.3    14  TYR14       0.1605
     11  C         41.9020   32.1480   67.1810 C.2    14  TYR14       0.2264
     12  O         41.2270   32.9900   67.8020 O.2    14  TYR14      -0.2867
     13  CB        40.2660   30.4010   67.9430 C.3    14  TYR14       0.0534
     14  CG        38.9950   30.3480   67.1050 C.ar   14  TYR14      -0.0201
     15  CD1       38.8810   29.3800   66.1210 C.ar   14  TYR14      -0.0009
     16  CD2       37.9600   31.2360   67.3390 C.ar   14  TYR14      -0.0009
     17  CE1       37.7400   29.2880   65.3650 C.ar   14  TYR14       0.0417
     18  CE2       36.8030   31.1430   66.5770 C.ar   14  TYR14       0.0417
     19  CZ        36.7070   30.1680   65.6030 C.ar   14  TYR14       0.1957
     20  OH        35.5410   30.0090   64.8730 O.3    14  TYR14      -0.2866
     21  N         38.9470   22.4750   71.9800 N.3    52  PHE52      -0.1241
     22  CA        37.6280   23.0440   72.0870 C.3    52  PHE52       0.1605
     23  C         36.5990   22.0410   72.5320 C.2    52  PHE52       0.2264
     24  O         35.8550   22.4000   73.4350 O.2    52  PHE52      -0.2867
     25  CB        37.2200   23.6280   70.7540 C.3    52  PHE52       0.0534
     26  CG        35.9650   24.4530   70.8650 C.ar   52  PHE52      -0.0203
     27  CD1       36.0250   25.6840   71.4920 C.ar   52  PHE52      -0.0042
     28  CD2       34.7660   23.9810   70.3710 C.ar   52  PHE52      -0.0042
     29  CE1       34.8760   26.4450   71.6210 C.ar   52  PHE52      -0.0003
     30  CE2       33.6170   24.7530   70.5110 C.ar   52  PHE52      -0.0003
     31  CZ        33.6700   25.9880   71.1210 C.ar   52  PHE52      -0.0000
     32  N         36.5740   31.2210   75.1530 N.3    69  SER69      -0.1202
     33  CA        37.0290   30.6320   73.9150 C.3    69  SER69       0.2020
     34  C         36.0610   30.8490   72.7430 C.2    69  SER69       0.2619
     35  O         35.7450   29.8930   72.0140 O.2    69  SER69      -0.2717
     36  CB        37.2510   29.1560   74.2340 C.3    69  SER69       0.2103
     37  OG        38.2070   28.5830   73.3480 O.3    69  SER69      -0.2182
     38  N         35.5880   32.1090   72.5320 N.am   70  SER70      -0.1937
     39  CA        34.5830   32.4550   71.5120 C.3    70  SER70       0.2055
     40  C         33.4000   31.4710   71.5900 C.2    70  SER70       0.2643
     41  O         32.8780   30.9590   70.5920 O.2    70  SER70      -0.2714
     42  CB        35.2420   32.4280   70.1130 C.3    70  SER70       0.2130
     43  OG        36.2350   33.4280   69.9080 O.3    70  SER70      -0.2179
     44  N         32.9460   31.2240   72.8010 N.am   71  LEU71      -0.1963
     45  CA        31.8850   30.2610   73.0560 C.3    71  LEU71       0.1728
     46  C         30.4990   30.8660   72.8030 C.2    71  LEU71       0.2616
     47  O         30.0250   31.6740   73.6130 O.2    71  LEU71      -0.2715
     48  CB        31.9970   29.7750   74.5080 C.3    71  LEU71       0.0311
     49  CG        31.1760   28.5400   74.8360 C.3    71  LEU71       0.0022
     50  CD1       31.7560   27.3440   74.1060 C.3    71  LEU71       0.0001
     51  CD2       31.1980   28.2800   76.3290 C.3    71  LEU71       0.0001
     52  N         29.8400   30.5080   71.6880 N.am   72  SER72      -0.1950
     53  CA        28.5560   31.1040   71.3580 C.3    72  SER72       0.1924
     54  C         27.4780   30.7110   72.3700 C.2    72  SER72       0.2314
     55  O         27.4400   29.5570   72.8160 O.2    72  SER72      -0.2863
     56  CB        28.1530   30.6700   69.9620 C.3    72  SER72       0.2116
     57  OG        29.0550   31.2440   69.0270 O.3    72  SER72      -0.2180
     58  N         23.5380   24.8770   74.5210 N.3    77  ARG77      -0.1245
     59  CA        24.5400   24.9310   75.5880 C.3    77  ARG77       0.1563
     60  C         23.9430   25.4470   76.8860 C.2    77  ARG77       0.2260
     61  O         24.3260   25.0160   77.9840 O.2    77  ARG77      -0.2867
     62  CB        25.6790   25.8130   75.1540 C.3    77  ARG77       0.0307
     63  CG        26.4360   25.1370   74.0550 C.3    77  ARG77       0.0489
     64  CD        27.5230   26.0300   73.5290 C.3    77  ARG77       0.2205
     65  NE        28.3440   25.3070   72.5740 N.pl3  77  ARG77      -0.0865
     66  CZ        29.0620   25.9300   71.6340 C.cat  77  ARG77       0.5346
     67  NH1       29.0620   27.2460   71.5190 N.pl3  77  ARG77       0.1354
     68  NH2       29.8290   25.2390   70.8030 N.pl3  77  ARG77       0.1354
     69  N         29.2960   36.8730   66.9440 N.3    90  ALA90      -0.1245
     70  CA        30.0190   35.9860   66.0780 C.3    90  ALA90       0.1562
     71  C         29.1360   35.3790   65.0010 C.2    90  ALA90       0.2260
     72  O         28.3510   34.4820   65.3010 O.2    90  ALA90      -0.2867
     73  CB        30.6360   34.7950   66.8520 C.3    90  ALA90       0.0290
     74  N         35.2430   22.7160   62.9660 N.3   117  LEU117     -0.1245
     75  CA        35.8330   22.3750   64.2370 C.3   117  LEU117      0.1561
     76  C         34.9070   21.4130   64.9980 C.2   117  LEU117      0.2260
     77  O         33.7040   21.6490   65.1860 O.2   117  LEU117     -0.2867
     78  CB        36.0450   23.6370   65.0790 C.3   117  LEU117      0.0270
     79  CG        36.6590   23.4630   66.4440 C.3   117  LEU117      0.0019
     80  CD1       38.0500   22.8970   66.2820 C.3   117  LEU117      0.0001
     81  CD2       36.7260   24.7690   67.1620 C.3   117  LEU117      0.0001
     82  N         31.9190   22.5510   67.5900 N.3   120  SER120     -0.1202
     83  CA        31.4330   23.9070   67.4950 C.3   120  SER120      0.2020
     84  C         29.9890   23.9360   67.0410 C.2   120  SER120      0.2619
     85  O         29.4160   22.9360   66.5960 O.2   120  SER120     -0.2717
     86  CB        32.2950   24.6670   66.5150 C.3   120  SER120      0.2103
     87  OG        32.3310   23.9790   65.2790 O.3   120  SER120     -0.2182
     88  N         29.3820   25.1140   66.9980 N.am  121  THR121     -0.1938
     89  CA        28.0400   25.2090   66.4520 C.3   121  THR121      0.2028
     90  C         28.0270   24.8950   64.9490 C.2   121  THR121      0.2642
     91  O         27.0120   24.5070   64.3740 O.2   121  THR121     -0.2714
     92  CB        27.5230   26.6250   66.7590 C.3   121  THR121      0.1808
     93  OG1       28.4280   27.4930   66.1170 O.3   121  THR121     -0.2208
     94  CG2       27.3810   26.8980   68.2440 C.3   121  THR121      0.0379
     95  N         29.1740   25.1310   64.2830 N.am  122  GLN122     -0.1976
     96  CA        29.3400   24.8970   62.8640 C.3   122  GLN122      0.1601
     97  C         29.3690   23.4160   62.5750 C.2   122  GLN122      0.2287
     98  O         28.8670   23.0160   61.5370 O.2   122  GLN122     -0.2864
     99  CB        30.6440   25.4840   62.3230 C.3   122  GLN122      0.0394
    100  CG        30.7660   26.9760   62.2510 C.3   122  GLN122      0.0908
    101  CD        31.1580   27.6680   63.5380 C.2   122  GLN122      0.2608
    102  OE1       31.7590   27.0980   64.4480 O.2   122  GLN122     -0.2717
    103  NE2       30.9000   28.9580   63.6600 N.am  122  GLN122     -0.0878
    104  N         33.7970   30.9380   62.4990 N.3   161  ASP161     -0.1239
    105  CA        33.3790   32.2940   62.7810 C.3   161  ASP161      0.1674
    106  C         34.0960   33.2370   61.8440 C.2   161  ASP161      0.2266
    107  O         35.3070   33.1650   61.6060 O.2   161  ASP161     -0.2867
    108  CB        33.6960   32.6430   64.2390 C.3   161  ASP161      0.1410
    109  CG        32.8700   31.9450   65.3120 C.2   161  ASP161      0.3668
    110  OD1       31.8580   31.3170   65.0260 O.co2 161  ASP161     -0.2456
    111  OD2       33.2480   32.0330   66.4790 O.co2 161  ASP161     -0.2456
@<TRIPOS>BOND
     1    98    97    2
     2   107   106    2
     3   106   105    1
     4   100    99    1
     5   100   101    1
     6    99    96    1
     7   104   105    1
     8    97    96    1
     9   105   108    1
    10    96    95    1
    11    74    75    1
    12   101   103   am
    13   101   102    2
    14    75    76    1
    15    75    78    1
    16   108   109    1
    17    95    90   am
    18    91    90    2
    19    20    19    1
    20    90    89    1
    21    76    77    2
    22    71    72    2
    23    71    70    1
    24   110   109   ar
    25    78    79    1
    26    87    86    1
    27   109   111   ar
    28    17    19   ar
    29    17    15   ar
    30    19    18   ar
    31    70    73    1
    32    70    69    1
    33    93    92    1
    34    15    14   ar
    35    80    79    1
    36    79    81    1
    37    89    92    1
    38    89    88    1
    39    86    83    1
    40    18    16   ar
    41    85    84    2
    42    92    94    1
    43    88    84   am
    44    84    83    1
    45    14    16   ar
    46    14    13    1
    47    11    10    1
    48    11    12    2
    49    10     9    1
    50    10    13    1
    51    83    82    1
    52    57    56    1
    53     8     6   ar
    54    43    42    1
    55    56    53    1
    56    42    39    1
    57     7     6   ar
    58    28    30   ar
    59    28    26   ar
    60    30    31   ar
    61    41    40    2
    62     6     5    1
    63    25    26    1
    64    25    22    1
    65    68    66    1
    66    26    27   ar
    67    31    29   ar
    68    53    52    1
    69    53    54    1
    70     4     3    2
    71    27    29   ar
    72    39    40    1
    73    39    38    1
    74    67    66    1
    75    40    44   am
    76    66    65    2
    77    52    46   am
    78    21    22    1
    79    35    34    2
    80    22    23    1
    81     3     2    1
    82     5     2    1
    83    54    55    2
    84    38    34   am
    85    23    24    2
    86    65    64    1
    87    34    33    1
    88    44    45    1
    89    46    45    1
    90    46    47    2
    91     2     1    1
    92    45    48    1
    93    37    36    1
    94    64    63    1
    95    33    36    1
    96    33    32    1
    97    63    62    1
    98    50    49    1
    99    48    49    1
   100    58    59    1
   101    49    51    1
   102    62    59    1
   103    59    60    1
   104    60    61    2
