@<TRIPOS>MOLECULE
tmp/1lahA00.pdb
 113 106 0 0 0
SMALL
GASTEIGER

@<TRIPOS>ATOM
      1  N         40.8470   27.3180   73.5900 N.3    11  ASP11      -0.1239
      2  CA        41.4210   26.3090   72.7210 C.3    11  ASP11       0.1674
      3  C         42.7800   26.6680   72.1220 C.2    11  ASP11       0.2266
      4  O         43.4800   25.7820   71.6470 O.2    11  ASP11      -0.2867
      5  CB        40.4230   25.9380   71.5880 C.3    11  ASP11       0.1410
      6  CG        40.0500   27.0210   70.5650 C.2    11  ASP11       0.3668
      7  OD1       40.7210   28.0410   70.5050 O.co2  11  ASP11      -0.2456
      8  OD2       39.0980   26.8560   69.8110 O.co2  11  ASP11      -0.2456
      9  N         42.4170   29.8690   67.6200 N.3    14  TYR14      -0.1241
     10  CA        41.3180   30.5880   67.0150 C.3    14  TYR14       0.1605
     11  C         41.6550   32.0790   67.0410 C.2    14  TYR14       0.2264
     12  O         41.0070   32.9140   67.6860 O.2    14  TYR14      -0.2867
     13  CB        40.0180   30.2540   67.8220 C.3    14  TYR14       0.0534
     14  CG        38.7650   30.0970   66.9780 C.ar   14  TYR14      -0.0201
     15  CD1       38.6430   28.9820   66.1730 C.ar   14  TYR14      -0.0009
     16  CD2       37.7640   31.0580   67.0290 C.ar   14  TYR14      -0.0009
     17  CE1       37.5120   28.7980   65.3900 C.ar   14  TYR14       0.0417
     18  CE2       36.6290   30.8810   66.2530 C.ar   14  TYR14       0.0417
     19  CZ        36.5190   29.7580   65.4410 C.ar   14  TYR14       0.1957
     20  OH        35.4020   29.5990   64.6480 O.3    14  TYR14      -0.2866
     21  N         38.8930   22.3090   71.6850 N.3    52  PHE52      -0.1241
     22  CA        37.6300   23.0020   71.8670 C.3    52  PHE52       0.1605
     23  C         36.5470   22.0580   72.3220 C.2    52  PHE52       0.2264
     24  O         35.8110   22.4290   73.2240 O.2    52  PHE52      -0.2867
     25  CB        37.1940   23.6640   70.5690 C.3    52  PHE52       0.0534
     26  CG        35.9040   24.4450   70.7280 C.ar   52  PHE52      -0.0203
     27  CD1       35.9160   25.6470   71.4120 C.ar   52  PHE52      -0.0042
     28  CD2       34.7290   23.9460   70.1910 C.ar   52  PHE52      -0.0042
     29  CE1       34.7460   26.3770   71.5600 C.ar   52  PHE52      -0.0003
     30  CE2       33.5690   24.6780   70.3440 C.ar   52  PHE52      -0.0003
     31  CZ        33.5780   25.8880   71.0200 C.ar   52  PHE52      -0.0000
     32  N         36.4520   31.1530   74.9490 N.3    69  SER69      -0.1202
     33  CA        36.9900   30.5690   73.7680 C.3    69  SER69       0.2020
     34  C         36.0290   30.7760   72.5910 C.2    69  SER69       0.2619
     35  O         35.7730   29.8180   71.8210 O.2    69  SER69      -0.2717
     36  CB        37.2120   29.1070   74.0750 C.3    69  SER69       0.2103
     37  OG        38.0980   28.5820   73.0860 O.3    69  SER69      -0.2182
     38  N         35.5130   32.0310   72.4260 N.am   70  SER70      -0.1937
     39  CA        34.5100   32.4200   71.4100 C.3    70  SER70       0.2055
     40  C         33.3290   31.4270   71.4580 C.2    70  SER70       0.2643
     41  O         32.8380   30.9310   70.4400 O.2    70  SER70      -0.2714
     42  CB        35.0970   32.3930   69.9890 C.3    70  SER70       0.2130
     43  OG        36.1940   33.2690   69.6770 O.3    70  SER70      -0.2179
     44  N         32.8990   31.1170   72.6690 N.am   71  LEU71      -0.1963
     45  CA        31.8340   30.1440   72.9140 C.3    71  LEU71       0.1728
     46  C         30.4460   30.7860   72.6370 C.2    71  LEU71       0.2616
     47  O         30.0130   31.7030   73.3650 O.2    71  LEU71      -0.2715
     48  CB        31.9470   29.6790   74.3750 C.3    71  LEU71       0.0311
     49  CG        31.0980   28.4600   74.7160 C.3    71  LEU71       0.0022
     50  CD1       31.6270   27.2100   74.0400 C.3    71  LEU71       0.0001
     51  CD2       31.1470   28.2620   76.2100 C.3    71  LEU71       0.0001
     52  N         29.7830   30.3580   71.5600 N.am   72  SER72      -0.1950
     53  CA        28.5120   30.9340   71.1560 C.3    72  SER72       0.1924
     54  C         27.4360   30.5610   72.1590 C.2    72  SER72       0.2314
     55  O         27.4040   29.4160   72.6150 O.2    72  SER72      -0.2863
     56  CB        28.1640   30.4180   69.7660 C.3    72  SER72       0.2116
     57  OG        28.9840   31.0690   68.7750 O.3    72  SER72      -0.2180
     58  N         23.4440   24.8780   74.2740 N.3    77  ARG77      -0.1245
     59  CA        24.4300   24.9040   75.3450 C.3    77  ARG77       0.1563
     60  C         23.8330   25.3880   76.6430 C.2    77  ARG77       0.2260
     61  O         24.2440   24.9440   77.7160 O.2    77  ARG77      -0.2867
     62  CB        25.5780   25.7930   74.9840 C.3    77  ARG77       0.0307
     63  CG        26.4360   25.0500   73.9930 C.3    77  ARG77       0.0489
     64  CD        27.4360   25.9620   73.3370 C.3    77  ARG77       0.2205
     65  NE        28.2260   25.2220   72.3640 N.pl3  77  ARG77      -0.0865
     66  CZ        29.0060   25.8650   71.4800 C.cat  77  ARG77       0.5346
     67  NH1       29.1060   27.1890   71.4370 N.pl3  77  ARG77       0.1354
     68  NH2       29.7000   25.1800   70.5990 N.pl3  77  ARG77       0.1354
     69  N         35.2530   22.6770   62.8190 N.3   117  LEU117     -0.1245
     70  CA        35.8630   22.3220   64.0740 C.3   117  LEU117      0.1561
     71  C         34.9300   21.3650   64.8220 C.2   117  LEU117      0.2260
     72  O         33.7720   21.6920   65.0680 O.2   117  LEU117     -0.2867
     73  CB        36.0700   23.5620   64.9040 C.3   117  LEU117      0.0270
     74  CG        36.6270   23.4510   66.3190 C.3   117  LEU117      0.0019
     75  CD1       38.0540   22.9070   66.3290 C.3   117  LEU117      0.0001
     76  CD2       36.6190   24.8280   66.9140 C.3   117  LEU117      0.0001
     77  N         31.9330   22.3730   67.4920 N.3   120  SER120     -0.1202
     78  CA        31.4950   23.7380   67.3400 C.3   120  SER120      0.2020
     79  C         30.0360   23.7820   66.9110 C.2   120  SER120      0.2619
     80  O         29.4260   22.7740   66.5320 O.2   120  SER120     -0.2717
     81  CB        32.3450   24.4590   66.2820 C.3   120  SER120      0.2103
     82  OG        32.2690   23.8300   65.0180 O.3   120  SER120     -0.2182
     83  N         29.5350   25.0130   66.7800 N.am  121  THR121     -0.1938
     84  CA        28.1950   25.1830   66.2500 C.3   121  THR121      0.2028
     85  C         28.1990   24.9050   64.7550 C.2   121  THR121      0.2642
     86  O         27.1950   24.4240   64.2160 O.2   121  THR121     -0.2714
     87  CB        27.6990   26.6140   66.5250 C.3   121  THR121      0.1808
     88  OG1       28.6750   27.4970   65.9820 O.3   121  THR121     -0.2208
     89  CG2       27.4050   26.8200   68.0060 C.3   121  THR121      0.0379
     90  N         29.3520   25.1390   64.0860 N.am  122  GLN122     -0.1976
     91  CA        29.4960   24.8950   62.6620 C.3   122  GLN122      0.1601
     92  C         29.4520   23.4050   62.3880 C.2   122  GLN122      0.2287
     93  O         28.8480   22.9780   61.4110 O.2   122  GLN122     -0.2864
     94  CB        30.8110   25.4400   62.1250 C.3   122  GLN122      0.0394
     95  CG        30.9270   26.9460   62.1320 C.3   122  GLN122      0.0908
     96  CD        31.2510   27.5690   63.4640 C.2   122  GLN122      0.2608
     97  OE1       31.7320   26.9930   64.4390 O.2   122  GLN122     -0.2717
     98  NE2       30.9980   28.8560   63.5170 N.am  122  GLN122     -0.0878
     99  N         33.7280   30.8340   62.4040 N.3   161  ASP161     -0.1239
    100  CA        33.3320   32.1930   62.7050 C.3   161  ASP161      0.1674
    101  C         34.0350   33.1060   61.7240 C.2   161  ASP161      0.2266
    102  O         35.2570   33.0170   61.5230 O.2   161  ASP161     -0.2867
    103  CB        33.7280   32.5970   64.1170 C.3   161  ASP161      0.1410
    104  CG        32.9280   31.9190   65.2250 C.2   161  ASP161      0.3668
    105  OD1       31.9890   31.1920   64.9170 O.co2 161  ASP161     -0.2456
    106  OD2       33.2490   32.1050   66.4110 O.co2 161  ASP161     -0.2456
    107  N         28.9290   35.4490   71.7650 N.3   195  THR195     -0.1218
    108  CA        29.7050   34.5050   72.5610 C.3   195  THR195      0.1862
    109  C         29.6950   35.0620   73.9800 C.2   195  THR195      0.2287
    110  O         29.4490   36.2650   74.1980 O.2   195  THR195     -0.2866
    111  CB        31.1890   34.3960   71.9600 C.3   195  THR195      0.1770
    112  OG1       31.8500   35.6480   72.2070 O.3   195  THR195     -0.2211
    113  CG2       31.2250   34.1910   70.4450 C.3   195  THR195      0.0375
@<TRIPOS>BOND
     1    93    92    2
     2   102   101    2
     3   101   100    1
     4    94    95    1
     5    94    91    1
     6    95    96    1
     7    92    91    1
     8    99   100    1
     9    91    90    1
    10   100   103    1
    11    69    70    1
    12    96    98   am
    13    96    97    2
    14    70    71    1
    15    70    73    1
    16    90    85   am
    17   103   104    1
    18    86    85    2
    19    20    19    1
    20    85    84    1
    21    71    72    2
    22    73    74    1
    23   105   104   ar
    24    82    81    1
    25   104   106   ar
    26    17    19   ar
    27    17    15   ar
    28    19    18   ar
    29    88    87    1
    30    15    14   ar
    31    84    87    1
    32    84    83    1
    33    18    16   ar
    34    81    78    1
    35    74    75    1
    36    74    76    1
    37    87    89    1
    38    80    79    2
    39    83    79   am
    40    79    78    1
    41    14    16   ar
    42    14    13    1
    43    10    11    1
    44    10     9    1
    45    10    13    1
    46    11    12    2
    47    78    77    1
    48    57    56    1
    49    43    42    1
    50    56    53    1
    51     8     6   ar
    52    42    39    1
    53    28    30   ar
    54    28    26   ar
    55    30    31   ar
    56    41    40    2
    57   113   111    1
    58     7     6   ar
    59     6     5    1
    60    25    26    1
    61    25    22    1
    62    68    66    1
    63    26    27   ar
    64    31    29   ar
    65    53    52    1
    66    53    54    1
    67    39    40    1
    68    39    38    1
    69    27    29   ar
    70    67    66    1
    71    40    44   am
    72    66    65    2
    73    52    46   am
    74     5     2    1
    75     4     3    2
    76    21    22    1
    77   107   108    1
    78    35    34    2
    79    22    23    1
    80   111   112    1
    81   111   108    1
    82     3     2    1
    83    54    55    2
    84    23    24    2
    85    65    64    1
    86    38    34   am
    87   108   109    1
    88    34    33    1
    89    46    45    1
    90    46    47    2
    91    44    45    1
    92     2     1    1
    93    45    48    1
    94    37    36    1
    95    64    63    1
    96    33    36    1
    97    33    32    1
    98   109   110    2
    99    63    62    1
   100    50    49    1
   101    58    59    1
   102    48    49    1
   103    49    51    1
   104    62    59    1
   105    59    60    1
   106    60    61    2
