@<TRIPOS>MOLECULE
tmp/1lanA00.pdb
 115 105 0 0 0
SMALL
GASTEIGER

@<TRIPOS>ATOM
      1  N         62.6880   62.1580    9.8800 N.3   250  LYS250     -0.1245
      2  CA        63.0360   60.7300    9.8060 C.3   250  LYS250      0.1561
      3  C         61.8000   59.9540    9.3010 C.2   250  LYS250      0.2260
      4  O         60.7410   59.9680    9.9470 O.2   250  LYS250     -0.2867
      5  CB        63.4370   60.2130   11.1960 C.3   250  LYS250      0.0271
      6  CG        63.5800   58.6960   11.3020 C.3   250  LYS250      0.0035
      7  CD        63.7020   58.2470   12.7620 C.3   250  LYS250      0.0206
      8  CE        63.7690   56.7150   12.8570 C.3   250  LYS250      0.1093
      9  NZ        63.8890   56.2590   14.2780 N.3   250  LYS250     -0.1314
     10  N         60.0720   49.9980   11.5470 N.3   255  ASP255     -0.1239
     11  CA        61.3370   49.6650   12.1990 C.3   255  ASP255      0.1674
     12  C         61.2510   48.3500   12.9980 C.2   255  ASP255      0.2266
     13  O         60.6600   48.2960   14.0870 O.2   255  ASP255     -0.2867
     14  CB        61.7830   50.8060   13.1250 C.3   255  ASP255      0.1410
     15  CG        63.2060   50.6240   13.6520 C.2   255  ASP255      0.3668
     16  OD1       63.9850   49.8150   13.0770 O.co2 255  ASP255     -0.2456
     17  OD2       63.5540   51.3010   14.6400 O.co2 255  ASP255     -0.2456
     18  N         64.2480   43.9230   17.2310 N.3   262  LYS262     -0.1245
     19  CA        63.4590   44.3450   18.3790 C.3   262  LYS262      0.1561
     20  C         62.6710   43.1840   18.9800 C.2   262  LYS262      0.2260
     21  O         62.4430   42.1730   18.3170 O.2   262  LYS262     -0.2867
     22  CB        62.4520   45.4270   17.9720 C.3   262  LYS262      0.0271
     23  CG        63.0380   46.7750   17.5740 C.3   262  LYS262      0.0035
     24  CD        61.9120   47.7330   17.1390 C.3   262  LYS262      0.0206
     25  CE        62.4500   49.1090   16.7650 C.3   262  LYS262      0.1093
     26  NZ        63.1450   49.7600   17.9130 N.3   262  LYS262     -0.1314
     27  N         55.7980   50.5670   15.8520 N.3   270  MET270     -0.1245
     28  CA        56.9040   51.0180   14.9910 C.3   270  MET270      0.1570
     29  C         56.4720   51.4190   13.5800 C.2   270  MET270      0.2261
     30  O         57.2950   51.8950   12.7840 O.2   270  MET270     -0.2867
     31  CB        58.0740   50.0120   14.9550 C.3   270  MET270      0.0387
     32  CG        58.8300   49.8900   16.3020 C.3   270  MET270      0.0595
     33  SD        59.4850   51.4520   16.9510 S.3   270  MET270     -0.1393
     34  CE        58.2780   51.8800   18.1850 C.3   270  MET270      0.0692
     35  N         57.2360   55.0400   13.1180 N.3   273  ASP273     -0.1239
     36  CA        58.6330   55.4860   13.1720 C.3   273  ASP273      0.1674
     37  C         58.9650   56.4790   12.0300 C.2   273  ASP273      0.2266
     38  O         60.1280   56.7980   11.7610 O.2   273  ASP273     -0.2867
     39  CB        59.5720   54.2770   13.1700 C.3   273  ASP273      0.1410
     40  CG        60.9230   54.5690   13.8300 C.2   273  ASP273      0.3668
     41  OD1       60.9920   55.3880   14.7790 O.co2 273  ASP273     -0.2456
     42  OD2       61.9220   53.9570   13.3940 O.co2 273  ASP273     -0.2456
     43  N         69.5930   49.0410   14.9120 N.3   332  ASP332     -0.1225
     44  CA        68.3250   49.6240   15.3510 C.3   332  ASP332      0.1805
     45  C         68.4970   51.1200   15.6620 C.2   332  ASP332      0.2598
     46  O         67.5370   51.8070   16.0080 O.2   332  ASP332     -0.2718
     47  CB        67.7570   48.8370   16.5470 C.3   332  ASP332      0.1424
     48  CG        66.2700   49.1380   16.8430 C.2   332  ASP332      0.3668
     49  OD1       65.5550   49.7650   16.0150 O.co2 332  ASP332     -0.2456
     50  OD2       65.8070   48.7260   17.9230 O.co2 332  ASP332     -0.2456
     51  N         69.7260   51.6250   15.5700 N.am  333  ALA333     -0.1966
     52  CA        69.9730   53.0570   15.7580 C.3   333  ALA333      0.1728
     53  C         70.0620   53.5540   14.3060 C.2   333  ALA333      0.2616
     54  O         71.0620   54.1550   13.8790 O.2   333  ALA333     -0.2715
     55  CB        71.3090   53.2890   16.4970 C.3   333  ALA333      0.0334
     56  N         69.0120   53.2600   13.5370 N.am  334  GLU334     -0.1963
     57  CA        68.9750   53.5970   12.1110 C.3   334  GLU334      0.1733
     58  C         68.5390   55.0170   11.7510 C.2   334  GLU334      0.2616
     59  O         68.8720   55.5070   10.6780 O.2   334  GLU334     -0.2715
     60  CB        68.1440   52.5460   11.3290 C.3   334  GLU334      0.0429
     61  CG        66.6050   52.7660   11.3000 C.3   334  GLU334      0.1163
     62  CD        65.9170   52.7570   12.6720 C.2   334  GLU334      0.3649
     63  OE1       66.3210   51.9650   13.5570 O.co2 334  GLU334     -0.2457
     64  OE2       64.9420   53.5390   12.8720 O.co2 334  GLU334     -0.2457
     65  N         67.7990   55.6750   12.6320 N.am  335  GLY335     -0.1955
     66  CA        67.3430   57.0210   12.3340 C.3   335  GLY335      0.1869
     67  C         68.4710   58.0110   12.1870 C.2   335  GLY335      0.2309
     68  O         68.4500   58.8530   11.2830 O.2   335  GLY335     -0.2863
     69  N         61.3340   60.3980   15.6790 N.3   359  THR359     -0.1203
     70  CA        60.8880   59.5110   16.7740 C.3   359  THR359      0.1994
     71  C         62.1920   58.7140   16.9370 C.2   359  THR359      0.2618
     72  O         62.2890   57.5460   16.5460 O.2   359  THR359     -0.2717
     73  CB        59.7630   58.5510   16.2860 C.3   359  THR359      0.1784
     74  OG1       60.1420   57.9940   15.0240 O.3   359  THR359     -0.2211
     75  CG2       58.4280   59.2920   16.1040 C.3   359  THR359      0.0376
     76  N         63.1960   59.3700   17.5140 N.am  360  LEU360     -0.1965
     77  CA        64.5320   58.8010   17.5850 C.3   360  LEU360      0.1728
     78  C         64.9680   57.8230   18.6590 C.2   360  LEU360      0.2617
     79  O         65.5090   56.7780   18.3300 O.2   360  LEU360     -0.2715
     80  CB        65.5590   59.9370   17.4630 C.3   360  LEU360      0.0311
     81  CG        66.9790   59.6370   16.9570 C.3   360  LEU360      0.0022
     82  CD1       66.9250   59.1340   15.5090 C.3   360  LEU360      0.0001
     83  CD2       67.8380   60.8970   17.0290 C.3   360  LEU360      0.0001
     84  N         64.7500   58.1350   19.9290 N.am  361  THR361     -0.1937
     85  CA        65.2570   57.2390   20.9590 C.3   361  THR361      0.2028
     86  C         64.2540   56.8310   22.0020 C.2   361  THR361      0.2642
     87  O         63.3870   57.6250   22.3860 O.2   361  THR361     -0.2714
     88  CB        66.4430   57.8980   21.7120 C.3   361  THR361      0.1808
     89  OG1       65.9780   59.0650   22.4080 O.3   361  THR361     -0.2208
     90  CG2       67.5530   58.3240   20.7460 C.3   361  THR361      0.0379
     91  N         64.4000   55.6010   22.4960 N.am  362  GLY362     -0.1954
     92  CA        63.5440   55.1320   23.5710 C.3   362  GLY362      0.1869
     93  C         63.9160   55.9350   24.8170 C.2   362  GLY362      0.2309
     94  O         63.0730   56.1880   25.6900 O.2   362  GLY362     -0.2863
     95  N         61.7210   58.9300   25.5940 N.3   365  ASP365     -0.1239
     96  CA        60.4550   58.5840   26.2410 C.3   365  ASP365      0.1674
     97  C         60.7010   58.3590   27.7390 C.2   365  ASP365      0.2266
     98  O         59.9450   58.8340   28.5890 O.2   365  ASP365     -0.2867
     99  CB        59.8190   57.3500   25.5920 C.3   365  ASP365      0.1410
    100  CG        58.4850   56.9950   26.2240 C.2   365  ASP365      0.3668
    101  OD1       57.5780   57.8520   26.2290 O.co2 365  ASP365     -0.2456
    102  OD2       58.3490   55.8890   26.7750 O.co2 365  ASP365     -0.2456
    103  N         59.9030   60.8710   20.1260 N.3   451  ALA451     -0.1245
    104  CA        59.6150   59.4750   20.4820 C.3   451  ALA451      0.1562
    105  C         58.6330   59.3550   21.6580 C.2   451  ALA451      0.2260
    106  O         57.7480   58.5040   21.6500 O.2   451  ALA451     -0.2867
    107  CB        60.9090   58.7170   20.7910 C.3   451  ALA451      0.0290
    108  N         54.8170   60.2520   20.6560 N.3   454  MET454     -0.1245
    109  CA        54.3640   59.5070   19.4770 C.3   454  MET454      0.1570
    110  C         52.9030   59.0790   19.6230 C.2   454  MET454      0.2261
    111  O         52.1090   59.1640   18.6800 O.2   454  MET454     -0.2867
    112  CB        55.2700   58.2850   19.2050 C.3   454  MET454      0.0387
    113  CG        55.0760   57.6590   17.8150 C.3   454  MET454      0.0595
    114  SD        56.1030   56.1920   17.4290 S.3   454  MET454     -0.1393
    115  CE        55.2600   54.9760   18.3890 C.3   454  MET454      0.0692
@<TRIPOS>BOND
     1     3     2    1
     2     3     4    2
     3     2     1    1
     4     2     5    1
     5    59    58    2
     6     5     6    1
     7    68    67    2
     8    61    60    1
     9    61    62    1
    10     6     7    1
    11    60    57    1
    12    10    11    1
    13    58    57    1
    14    58    65   am
    15    38    37    2
    16    37    36    1
    17    57    56    1
    18    67    66    1
    19    11    12    1
    20    11    14    1
    21    66    65    1
    22    62    64   ar
    23    62    63   ar
    24     7     8    1
    25    30    29    2
    26     8     9    1
    27    12    13    2
    28    16    15   ar
    29    35    36    1
    30    14    15    1
    31    39    36    1
    32    39    40    1
    33    42    40   ar
    34    56    53   am
    35    29    28    1
    36    15    17   ar
    37    40    41   ar
    38    54    53    2
    39    53    52    1
    40    43    44    1
    41    31    28    1
    42    31    32    1
    43    28    27    1
    44    74    73    1
    45    44    45    1
    46    44    47    1
    47    82    81    1
    48    51    45   am
    49    51    52    1
    50    45    46    2
    51    69    70    1
    52    52    55    1
    53    49    48   ar
    54    75    73    1
    55    73    70    1
    56    32    33    1
    57    72    71    2
    58    47    48    1
    59    25    24    1
    60    25    26    1
    61    70    71    1
    62    48    50   ar
    63    71    76   am
    64    33    34    1
    65    81    83    1
    66    81    80    1
    67    24    23    1
    68    18    19    1
    69   114   113    1
    70   114   115    1
    71    80    77    1
    72    76    77    1
    73    23    22    1
    74    77    78    1
    75   113   112    1
    76    22    19    1
    77    21    20    2
    78    79    78    2
    79    19    20    1
    80    78    84   am
    81   111   110    2
    82   112   109    1
    83   109   110    1
    84   109   108    1
    85    84    85    1
    86   103   104    1
    87   104   107    1
    88   104   105    1
    89    90    88    1
    90    85    88    1
    91    85    86    1
    92   106   105    2
    93    88    89    1
    94    86    87    2
    95    86    91   am
    96    91    92    1
    97    92    93    1
    98    93    94    2
    99    99   100    1
   100    99    96    1
   101    95    96    1
   102   100   101   ar
   103   100   102   ar
   104    96    97    1
   105    97    98    2
