@<TRIPOS>MOLECULE
tmp/1lauB00.pdb
 151 152 0 0 0
SMALL
GASTEIGER

@<TRIPOS>ATOM
      1  N          7.1250    7.5470   70.6480 N.3    70  GLY70      -0.1210
      2  CA         6.3880    7.1960   71.8540 C.3    70  GLY70       0.1956
      3  C          5.4810    5.9820   71.5550 C.2    70  GLY70       0.2612
      4  O          5.3780    5.5530   70.4170 O.2    70  GLY70      -0.2717
      5  N          4.8130    5.4240   72.5540 N.am   71  GLN71      -0.1965
      6  CA         3.9590    4.2580   72.3160 C.3    71  GLN71       0.1733
      7  C          2.4280    4.5690   72.3270 C.2    71  GLN71       0.2616
      8  O          1.7700    4.6250   71.2880 O.2    71  GLN71      -0.2715
      9  CB         4.3190    3.1620   73.3370 C.3    71  GLN71       0.0408
     10  CG         3.6490    1.7940   73.0640 C.3    71  GLN71       0.0908
     11  CD         4.0630    0.6580   74.0260 C.2    71  GLN71       0.2608
     12  OE1        3.6310   -0.4790   73.8650 O.2    71  GLN71      -0.2717
     13  NE2        4.8650    0.9630   75.0070 N.am   71  GLN71      -0.0878
     14  N          1.9170    4.9030   73.4950 N.am   72  ASP72      -0.1958
     15  CA         0.5030    5.1870   73.6960 C.3    72  ASP72       0.1825
     16  C          0.2980    6.6330   74.2600 C.2    72  ASP72       0.2464
     17  O          1.1520    7.1440   74.9710 O.2    72  ASP72      -0.2730
     18  CB         0.0180    4.1520   74.7340 C.3    72  ASP72       0.1450
     19  CG        -1.4200    3.6900   74.5240 C.2    72  ASP72       0.3671
     20  OD1       -1.7820    3.3400   73.3860 O.co2  72  ASP72      -0.2456
     21  OD2       -2.1720    3.6530   75.5340 O.co2  72  ASP72      -0.2456
     22  N         -0.8140    7.3250   73.9160 N.am   73  PRO73      -0.2715
     23  CA        -0.9620    8.6630   74.5010 C.3    73  PRO73       0.1536
     24  C         -1.4750    8.5380   75.9570 C.2    73  PRO73       0.2599
     25  O         -2.0210    7.4930   76.3550 O.2    73  PRO73      -0.2715
     26  CB        -1.9930    9.3590   73.5860 C.3    73  PRO73       0.0310
     27  CG        -2.7590    8.2850   72.9650 C.3    73  PRO73       0.0237
     28  CD        -1.8550    7.0390   72.9170 C.3    73  PRO73       0.0939
     29  N         -1.2410    9.5700   76.7670 N.am   74  TYR74      -0.1960
     30  CA        -1.7230    9.5860   78.1430 C.3    74  TYR74       0.1771
     31  C         -3.2240    9.3410   78.1390 C.2    74  TYR74       0.2620
     32  O         -3.9320    9.8760   77.2770 O.2    74  TYR74      -0.2715
     33  CB        -1.4230   10.9320   78.7750 C.3    74  TYR74       0.0574
     34  CG         0.0770   11.1530   78.9810 C.ar   74  TYR74      -0.0198
     35  CD1        0.7590   10.4600   79.9860 C.ar   74  TYR74      -0.0009
     36  CD2        0.7940   12.0500   78.1760 C.ar   74  TYR74      -0.0009
     37  CE1        2.1390   10.6490   80.1950 C.ar   74  TYR74       0.0417
     38  CE2        2.1880   12.2470   78.3750 C.ar   74  TYR74       0.0417
     39  CZ         2.8460   11.5400   79.3840 C.ar   74  TYR74       0.1957
     40  OH         4.2170   11.6830   79.5840 O.3    74  TYR74      -0.2866
     41  N         -3.7090    8.5680   79.1080 N.am   75  HIS75      -0.1959
     42  CA        -5.1330    8.2270   79.1370 C.3    75  HIS75       0.1787
     43  C         -6.0330    8.8750   80.2070 C.2    75  HIS75       0.2620
     44  O         -7.0670    8.3240   80.5690 O.2    75  HIS75      -0.2715
     45  CB        -5.3150    6.6970   79.0910 C.3    75  HIS75       0.0785
     46  CG        -4.6800    5.9760   80.2310 C.ar   75  HIS75       0.0821
     47  ND1       -3.5020    5.2730   80.1010 N.ar   75  HIS75      -0.2267
     48  CD2       -5.0610    5.8270   81.5130 C.ar   75  HIS75       0.1154
     49  CE1       -3.1800    4.7230   81.2540 C.ar   75  HIS75       0.1986
     50  NE2       -4.1100    5.0440   82.1340 N.ar   75  HIS75      -0.2212
     51  N         -5.5610    9.9540   80.8160 N.am   76  HIS76      -0.1973
     52  CA        -6.3900   10.6880   81.7590 C.3    76  HIS76       0.1656
     53  C         -6.7000   12.0330   81.1360 C.2    76  HIS76       0.2291
     54  O         -5.8880   12.5910   80.3840 O.2    76  HIS76      -0.2864
     55  CB        -5.7080   10.8490   83.0900 C.3    76  HIS76       0.0771
     56  CG        -5.5500    9.5570   83.8040 C.ar   76  HIS76       0.0820
     57  ND1       -6.6300    8.7630   84.1310 N.ar   76  HIS76      -0.2267
     58  CD2       -4.4440    8.8810   84.1920 C.ar   76  HIS76       0.1154
     59  CE1       -6.1930    7.6490   84.6940 C.ar   76  HIS76       0.1986
     60  NE2       -4.8700    7.6960   84.7420 N.ar   76  HIS76      -0.2212
     61  N         -4.2610   15.4630   79.9590 N.3    79  GLN79      -0.1245
     62  CA        -2.8190   15.2030   79.8990 C.3    79  GLN79       0.1566
     63  C         -2.2250   15.2770   78.4940 C.2    79  GLN79       0.2260
     64  O         -1.3210   16.1030   78.2290 O.2    79  GLN79      -0.2867
     65  CB        -2.4700   13.8320   80.5200 C.3    79  GLN79       0.0367
     66  CG        -2.7970   13.6690   82.0020 C.3    79  GLN79       0.0905
     67  CD        -2.3740   12.2900   82.5110 C.2    79  GLN79       0.2608
     68  OE1       -2.6330   11.2630   81.8720 O.2    79  GLN79      -0.2717
     69  NE2       -1.7040   12.2630   83.6420 N.am   79  GLN79      -0.0878
     70  N          5.1640   11.9320   74.7970 N.3    85  PHE85      -0.1241
     71  CA         5.6920   12.3060   76.1230 C.3    85  PHE85       0.1605
     72  C          5.2150   13.6110   76.7880 C.2    85  PHE85       0.2264
     73  O          5.1150   13.6770   78.0220 O.2    85  PHE85      -0.2867
     74  CB         7.2240   12.2830   76.1260 C.3    85  PHE85       0.0534
     75  CG         7.8220   10.9020   75.8880 C.ar   85  PHE85      -0.0203
     76  CD1        7.8330    9.9460   76.9170 C.ar   85  PHE85      -0.0042
     77  CD2        8.3250   10.5520   74.6350 C.ar   85  PHE85      -0.0042
     78  CE1        8.3280    8.6800   76.6930 C.ar   85  PHE85      -0.0003
     79  CE2        8.8290    9.2680   74.4080 C.ar   85  PHE85      -0.0003
     80  CZ         8.8270    8.3400   75.4320 C.ar   85  PHE85      -0.0000
     81  N          4.4890   13.8220   84.8180 N.3    94  PRO94      -0.2103
     82  CA         4.3940   12.5430   85.5340 C.3    94  PRO94       0.1489
     83  C          5.8280   11.9700   85.5830 C.2    94  PRO94       0.2418
     84  O          6.7460   12.5000   84.9410 O.2    94  PRO94      -0.2734
     85  CB         3.4460   11.7080   84.6620 C.3    94  PRO94       0.0282
     86  CG         2.6270   12.7200   83.9330 C.3    94  PRO94       0.0208
     87  CD         3.6490   13.8300   83.6070 C.3    94  PRO94       0.0893
     88  N          6.0320   10.8830   86.3290 N.am   95  PRO95      -0.2718
     89  CA         7.3250   10.2260   86.5110 C.3    95  PRO95       0.1535
     90  C          8.2600   10.0120   85.3220 C.2    95  PRO95       0.2599
     91  O          9.4430   10.3580   85.4260 O.2    95  PRO95      -0.2715
     92  CB         6.9510    8.9150   87.2090 C.3    95  PRO95       0.0310
     93  CG         5.6640    9.2960   87.9520 C.3    95  PRO95       0.0237
     94  CD         4.9470   10.0770   86.9350 C.3    95  PRO95       0.0939
     95  N          7.7780    9.3860   84.2360 N.am   96  SER96      -0.1936
     96  CA         8.6370    9.1290   83.0660 C.3    96  SER96       0.2055
     97  C          9.1570   10.4370   82.4700 C.2    96  SER96       0.2642
     98  O         10.3800   10.5770   82.2270 O.2    96  SER96      -0.2714
     99  CB         7.9470    8.2410   81.9920 C.3    96  SER96       0.2130
    100  OG         7.9040    6.8740   82.4160 O.3    96  SER96      -0.2179
    101  N          8.2500   11.4020   82.2910 N.am   97  LEU97      -0.1977
    102  CA         8.6480   12.7220   81.7680 C.3    97  LEU97       0.1596
    103  C          9.6690   13.4420   82.6790 C.2    97  LEU97       0.2287
    104  O         10.5670   14.1020   82.1890 O.2    97  LEU97      -0.2864
    105  CB         7.4270   13.6250   81.5310 C.3    97  LEU97       0.0297
    106  CG         7.6530   14.9950   80.8520 C.3    97  LEU97       0.0022
    107  CD1        8.3400   14.8100   79.4860 C.3    97  LEU97       0.0001
    108  CD2        6.2730   15.6750   80.6640 C.3    97  LEU97       0.0001
    109  N          3.8250    9.3210   68.6330 N.3   131  ASN131     -0.1240
    110  CA         3.3820    8.0680   69.2300 C.3   131  ASN131      0.1653
    111  C          3.0380    7.1200   68.0900 C.2   131  ASN131      0.2266
    112  O          2.6470    7.5860   67.0260 O.2   131  ASN131     -0.2867
    113  CB         2.0940    8.2790   70.0250 C.3   131  ASN131      0.1155
    114  CG         2.3230    8.9820   71.3440 C.2   131  ASN131      0.2627
    115  OD1        3.3090    8.7070   72.0710 O.2   131  ASN131     -0.2716
    116  ND2        1.3940    9.8680   71.6870 N.am  131  ASN131     -0.0877
    117  N         -8.8100    6.0170   80.5020 N.3   139  GLY139     -0.1225
    118  CA        -8.5560    5.0520   81.5510 C.3   139  GLY139      0.1811
    119  C         -8.1000    3.6730   81.1320 C.2   139  GLY139      0.2280
    120  O         -7.8300    2.8440   81.9920 O.2   139  GLY139     -0.2866
    121  N         13.9690    2.5570   78.4390 N.3   194  HIS194     -0.1241
    122  CA        12.8180    3.4420   78.6190 C.3   194  HIS194      0.1621
    123  C         13.0120    4.3910   79.8030 C.2   194  HIS194      0.2264
    124  O         13.6570    4.0180   80.8060 O.2   194  HIS194     -0.2867
    125  CB        11.5690    2.5860   78.8570 C.3   194  HIS194      0.0745
    126  CG        10.2850    3.3350   78.6720 C.ar  194  HIS194      0.0817
    127  ND1        9.6870    4.0590   79.6870 N.ar  194  HIS194     -0.2268
    128  CD2        9.5180    3.5290   77.5720 C.ar  194  HIS194      0.1154
    129  CE1        8.6160    4.6740   79.2150 C.ar  194  HIS194      0.1986
    130  NE2        8.4910    4.3710   77.9350 N.ar  194  HIS194     -0.2212
    131  N         11.0070    5.2650   82.1060 N.3   196  SER196     -0.1203
    132  CA        10.2760    4.8400   83.3060 C.3   196  SER196      0.2005
    133  C         11.1790    4.6360   84.5280 C.2   196  SER196      0.2461
    134  O         12.2890    4.0920   84.4170 O.2   196  SER196     -0.2732
    135  CB         9.5020    3.5420   83.0480 C.3   196  SER196      0.2103
    136  OG         8.8990    3.0640   84.2370 O.3   196  SER196     -0.2182
    137  N         10.7520    5.1610   85.6870 N.am  197  PRO197     -0.2717
    138  CA        11.5670    4.9790   86.8830 C.3   197  PRO197      0.1535
    139  C         11.7370    3.4540   87.2400 C.2   197  PRO197      0.2598
    140  O         12.6160    3.0720   88.0260 O.2   197  PRO197     -0.2715
    141  CB        10.8010    5.8020   87.9450 C.3   197  PRO197      0.0310
    142  CG         9.4210    5.9320   87.4040 C.3   197  PRO197      0.0237
    143  CD         9.6450    6.1000   85.9400 C.3   197  PRO197      0.0939
    144  N         10.9260    2.5890   86.6380 N.am  198  LEU198     -0.1978
    145  CA        11.0340    1.1540   86.8840 C.3   198  LEU198      0.1596
    146  C         12.1360    0.4480   86.0770 C.2   198  LEU198      0.2287
    147  O         12.3790   -0.7400   86.2990 O.2   198  LEU198     -0.2864
    148  CB         9.6810    0.4670   86.6590 C.3   198  LEU198      0.0297
    149  CG         8.6980    1.0200   87.7000 C.3   198  LEU198      0.0022
    150  CD1        7.2590    0.7650   87.2630 C.3   198  LEU198      0.0001
    151  CD2        8.9990    0.4460   89.1030 C.3   198  LEU198      0.0001
@<TRIPOS>BOND
     1   112   111    2
     2   111   110    1
     3   109   110    1
     4   110   113    1
     5   113   114    1
     6     4     3    2
     7     1     2    1
     8     8     7    2
     9   114   116   am
    10   114   115    2
    11     3     2    1
    12     3     5   am
    13     6     7    1
    14     6     5    1
    15     6     9    1
    16     7    14   am
    17    28    27    1
    18    28    22    1
    19    27    26    1
    20    10     9    1
    21    10    11    1
    22    20    19   ar
    23    14    15    1
    24    26    23    1
    25    15    16    1
    26    15    18    1
    27    12    11    2
    28    22    16   am
    29    22    23    1
    30    11    13   am
    31    16    17    2
    32    79    77   ar
    33    79    80   ar
    34    23    24    1
    35    19    18    1
    36    19    21   ar
    37    77    75   ar
    38    70    71    1
    39    80    78   ar
    40    75    74    1
    41    75    76   ar
    42    24    25    2
    43    24    29   am
    44    71    74    1
    45    71    72    1
    46    78    76   ar
    47    29    30    1
    48    72    73    2
    49    32    31    2
    50   128   130   ar
    51   128   126   ar
    52   130   129   ar
    53    31    30    1
    54    31    41   am
    55    30    33    1
    56    36    38   ar
    57    36    34   ar
    58    64    63    2
    59    38    39   ar
    60   121   122    1
    61    63    62    1
    62   122   125    1
    63   122   123    1
    64   126   125    1
    65   126   127   ar
    66    33    34    1
    67    34    35   ar
    68    45    42    1
    69    45    46    1
    70    41    42    1
    71    42    43    1
    72   129   127   ar
    73    39    40    1
    74    39    37   ar
    75   107   106    1
    76   123   124    2
    77    62    61    1
    78    62    65    1
    79    35    37   ar
    80    47    46   ar
    81    47    49   ar
    82    43    44    2
    83    43    51   am
    84    46    48   ar
    85    54    53    2
    86   117   118    1
    87    65    66    1
    88   108   106    1
    89    51    52    1
    90   106   105    1
    91   119   118    1
    92   119   120    2
    93    53    52    1
    94    49    50   ar
    95    48    50   ar
    96   105   102    1
    97    52    55    1
    98   102   101    1
    99   102   103    1
   100    68    67    2
   101    99   100    1
   102    99    96    1
   103    66    67    1
   104   131   132    1
   105   104   103    2
   106    98    97    2
   107   101    97   am
   108    97    96    1
   109    67    69   am
   110   135   132    1
   111   135   136    1
   112    96    95    1
   113    55    56    1
   114   132   133    1
   115    87    86    1
   116    87    81    1
   117    56    57   ar
   118    56    58   ar
   119    86    85    1
   120    57    59   ar
   121    58    60   ar
   122    95    90   am
   123   134   133    2
   124   133   137   am
   125    85    82    1
   126    59    60   ar
   127    81    82    1
   128    84    83    2
   129    90    91    2
   130    90    89    1
   131    82    83    1
   132    83    88   am
   133   137   143    1
   134   137   138    1
   135   143   142    1
   136   146   147    2
   137   146   145    1
   138    88    89    1
   139    88    94    1
   140    89    92    1
   141   144   145    1
   142   144   139   am
   143   148   145    1
   144   148   149    1
   145   138   139    1
   146   138   141    1
   147    94    93    1
   148    92    93    1
   149   139   140    2
   150   150   149    1
   151   142   141    1
   152   149   151    1
