@<TRIPOS>MOLECULE
tmp/1lb5A00.pdb
 202 199 0 0 0
SMALL
GASTEIGER

@<TRIPOS>ATOM
      1  N          2.1250   10.9960    1.4520 N.3    28  VAL28      -0.1245
      2  CA         1.9720   11.8410    2.6360 C.3    28  VAL28       0.1561
      3  C          0.8730   11.1630    3.4270 C.2    28  VAL28       0.2260
      4  O         -0.2610   11.0340    2.9490 O.2    28  VAL28      -0.2867
      5  CB         1.5300   13.2780    2.2990 C.3    28  VAL28       0.0252
      6  CG1        1.5440   14.1300    3.5680 C.3    28  VAL28       0.0019
      7  CG2        2.4410   13.8740    1.2660 C.3    28  VAL28       0.0019
      8  N         -1.0530   10.7950    7.3450 N.3    30  HIS30      -0.1241
      9  CA        -1.3050   11.4050    8.6440 C.3    30  HIS30       0.1621
     10  C         -1.6090   10.2940    9.6310 C.2    30  HIS30       0.2264
     11  O         -2.2410    9.2990    9.2790 O.2    30  HIS30      -0.2867
     12  CB        -2.5100   12.3480    8.5760 C.3    30  HIS30       0.0745
     13  CG        -2.2230   13.6460    7.8930 C.ar   30  HIS30       0.0817
     14  ND1       -1.8070   14.7700    8.5750 N.ar   30  HIS30      -0.2268
     15  CD2       -2.2730   13.9950    6.5860 C.ar   30  HIS30       0.1154
     16  CE1       -1.6140   15.7560    7.7160 C.ar   30  HIS30       0.1986
     17  NE2       -1.8900   15.3110    6.5030 N.ar   30  HIS30      -0.2212
     18  N          2.4610   13.9210   10.6580 N.3    46  ARG46      -0.1245
     19  CA         2.3740   13.9460    9.2070 C.3    46  ARG46       0.1563
     20  C          3.7190   13.4260    8.7190 C.2    46  ARG46       0.2260
     21  O          4.7680   13.9870    9.0460 O.2    46  ARG46      -0.2867
     22  CB         2.1360   15.3770    8.6990 C.3    46  ARG46       0.0307
     23  CG         2.3140   15.5600    7.1900 C.3    46  ARG46       0.0489
     24  CD         1.8040   16.9310    6.7070 C.3    46  ARG46       0.2205
     25  NE         2.3540   18.0570    7.4680 N.pl3  46  ARG46      -0.0865
     26  CZ         3.3240   18.8680    7.0500 C.cat  46  ARG46       0.5346
     27  NH1        3.8850   18.7020    5.8620 N.pl3  46  ARG46       0.1354
     28  NH2        3.7220   19.8720    7.8210 N.pl3  46  ARG46       0.1354
     29  N          6.0520   12.1660    5.3390 N.3    48  HIS48      -0.1241
     30  CA         6.2240   12.2260    3.8850 C.3    48  HIS48       0.1621
     31  C          7.3470   11.3170    3.4160 C.2    48  HIS48       0.2264
     32  O          8.3250   11.1000    4.1310 O.2    48  HIS48      -0.2867
     33  CB         6.6640   13.6150    3.3990 C.3    48  HIS48       0.0745
     34  CG         5.6820   14.7160    3.6340 C.ar   48  HIS48       0.0817
     35  ND1        5.2590   15.0860    4.8930 N.ar   48  HIS48      -0.2268
     36  CD2        5.1160   15.5960    2.7730 C.ar   48  HIS48       0.1154
     37  CE1        4.4790   16.1490    4.7970 C.ar   48  HIS48       0.1986
     38  NE2        4.3770   16.4800    3.5220 N.ar   48  HIS48      -0.2212
     39  N          6.4020   15.5230   10.8250 N.3    64  PHE64      -0.1241
     40  CA         5.9380   16.7040   11.5410 C.3    64  PHE64       0.1605
     41  C          4.8380   16.3960   12.5410 C.2    64  PHE64       0.2264
     42  O          4.1460   15.3760   12.4360 O.2    64  PHE64      -0.2867
     43  CB         5.3930   17.7580   10.5670 C.3    64  PHE64       0.0534
     44  CG         6.3140   18.0740    9.4290 C.ar   64  PHE64      -0.0203
     45  CD1        6.2240   17.3720    8.2290 C.ar   64  PHE64      -0.0042
     46  CD2        7.2710   19.0740    9.5540 C.ar   64  PHE64      -0.0042
     47  CE1        7.0780   17.6650    7.1650 C.ar   64  PHE64      -0.0003
     48  CE2        8.1330   19.3760    8.4970 C.ar   64  PHE64      -0.0003
     49  CZ         8.0360   18.6700    7.3000 C.ar   64  PHE64      -0.0000
     50  N          1.4290   18.1630   14.4800 N.3    66  HIS66      -0.1241
     51  CA         0.4350   19.2260   14.3610 C.3    66  HIS66       0.1621
     52  C         -0.4970   19.1560   15.5580 C.2    66  HIS66       0.2264
     53  O         -0.8880   18.0660   15.9770 O.2    66  HIS66      -0.2867
     54  CB        -0.4050   19.0530   13.0850 C.3    66  HIS66       0.0745
     55  CG         0.3410   19.3260   11.8160 C.ar   66  HIS66       0.0817
     56  ND1        0.1340   20.4600   11.0590 N.ar   66  HIS66      -0.2268
     57  CD2        1.2900   18.6090   11.1660 C.ar   66  HIS66       0.1154
     58  CE1        0.9220   20.4290    9.9980 C.ar   66  HIS66       0.1986
     59  NE2        1.6340   19.3160   10.0390 N.ar   66  HIS66      -0.2212
     60  N         15.0030   12.2930   17.0750 N.3   102  GLU102     -0.1231
     61  CA        15.3050   13.6960   17.2930 C.3   102  GLU102      0.1699
     62  C         14.4030   14.1320   18.4340 C.2   102  GLU102      0.2592
     63  O         13.3470   13.5290   18.6600 O.2   102  GLU102     -0.2718
     64  CB        14.9560   14.5250   16.0570 C.3   102  GLU102      0.0402
     65  CG        15.7290   14.1740   14.7980 C.3   102  GLU102      0.1161
     66  CD        17.2100   14.4780   14.9110 C.2   102  GLU102      0.3649
     67  OE1       17.5740   15.4110   15.6600 O.co2 102  GLU102     -0.2457
     68  OE2       18.0100   13.7950   14.2350 O.co2 102  GLU102     -0.2457
     69  N         14.8230   15.1650   19.1530 N.am  103  ILE103     -0.1966
     70  CA        14.0320   15.7040   20.2490 C.3   103  ILE103      0.1727
     71  C         13.9040   17.1870   19.9670 C.2   103  ILE103      0.2616
     72  O         14.9040   17.8610   19.7320 O.2   103  ILE103     -0.2715
     73  CB        14.7260   15.5360   21.6120 C.3   103  ILE103      0.0290
     74  CG1       15.2190   14.0950   21.7780 C.3   103  ILE103      0.0022
     75  CG2       13.7490   15.8990   22.7280 C.3   103  ILE103      0.0023
     76  CD1       15.8250   13.7990   23.1480 C.3   103  ILE103      0.0001
     77  N         12.6800   17.6940   19.9630 N.am  104  MET104     -0.1963
     78  CA        12.4790   19.1100   19.7000 C.3   104  MET104      0.1736
     79  C         11.8240   19.8540   20.8460 C.2   104  MET104      0.2616
     80  O         10.9790   19.3160   21.5600 O.2   104  MET104     -0.2715
     81  CB        11.6620   19.3170   18.4150 C.3   104  MET104      0.0427
     82  CG        10.7170   18.1850   18.0470 C.3   104  MET104      0.0599
     83  SD         9.8940   18.4720   16.4560 S.3   104  MET104     -0.1393
     84  CE         8.1650   18.2240   16.9200 C.3   104  MET104      0.0692
     85  N         12.2550   21.0950   21.0290 N.am  105  ASP105     -0.1971
     86  CA        11.7000   21.9550   22.0560 C.3   105  ASP105      0.1709
     87  C         10.6490   22.7820   21.3470 C.2   105  ASP105      0.2293
     88  O         10.8980   23.3050   20.2600 O.2   105  ASP105     -0.2864
     89  CB        12.7680   22.8880   22.6290 C.3   105  ASP105      0.1436
     90  CG        13.8450   22.1480   23.3880 C.2   105  ASP105      0.3671
     91  OD1       13.4990   21.3400   24.2760 O.co2 105  ASP105     -0.2456
     92  OD2       15.0380   22.3830   23.1030 O.co2 105  ASP105     -0.2456
     93  N          8.4460   25.8740   20.3160 N.3   107  LYS107     -0.1245
     94  CA         8.7220   27.3020   20.2260 C.3   107  LYS107      0.1561
     95  C          7.3730   28.0010   20.3760 C.2   107  LYS107      0.2260
     96  O          6.6190   28.1130   19.4170 O.2   107  LYS107     -0.2867
     97  CB         9.3270   27.6530   18.8660 C.3   107  LYS107      0.0271
     98  CG        10.8020   27.3370   18.7150 C.3   107  LYS107      0.0035
     99  CD        11.3060   27.8850   17.3920 C.3   107  LYS107      0.0206
    100  CE        12.8010   27.7090   17.2290 C.3   107  LYS107      0.1093
    101  NZ        13.2520   28.2340   15.9010 N.3   107  LYS107     -0.1314
    102  N          5.6390   30.3380   17.7550 N.3   110  LEU110     -0.1231
    103  CA         5.1160   29.8120   16.4920 C.3   110  LEU110      0.1693
    104  C          3.6490   29.4000   16.5730 C.2   110  LEU110      0.2592
    105  O          3.2140   28.8120   17.5630 O.2   110  LEU110     -0.2718
    106  CB         5.9480   28.6090   16.0450 C.3   110  LEU110      0.0284
    107  CG         7.4540   28.8290   15.8840 C.3   110  LEU110      0.0019
    108  CD1        8.1040   27.5210   15.4380 C.3   110  LEU110      0.0001
    109  CD2        7.7130   29.9390   14.8710 C.3   110  LEU110      0.0001
    110  N          2.8950   29.6970   15.5150 N.am  111  LEU111     -0.1966
    111  CA         1.4720   29.3590   15.4550 C.3   111  LEU111      0.1728
    112  C          1.2540   27.8510   15.5380 C.2   111  LEU111      0.2616
    113  O          0.1620   27.3850   15.8770 O.2   111  LEU111     -0.2715
    114  CB         0.8520   29.8900   14.1580 C.3   111  LEU111      0.0311
    115  CG         0.9090   31.4050   13.9150 C.3   111  LEU111      0.0022
    116  CD1        0.3050   31.7320   12.5530 C.3   111  LEU111      0.0001
    117  CD2        0.1670   32.1390   15.0210 C.3   111  LEU111      0.0001
    118  N          2.2930   27.0880   15.2160 N.am  112  ALA112     -0.1977
    119  CA         2.1980   25.6390   15.2740 C.3   112  ALA112      0.1597
    120  C          1.8710   25.1900   16.6950 C.2   112  ALA112      0.2287
    121  O          1.2130   24.1690   16.8960 O.2   112  ALA112     -0.2864
    122  CB         3.5120   25.0060   14.8110 C.3   112  ALA112      0.0319
    123  N         -7.6470   20.5670   12.6610 N.3   120  ARG120     -0.1231
    124  CA        -6.2100   20.2970   12.5630 C.3   120  ARG120      0.1694
    125  C         -5.4280   21.5620   12.2230 C.2   120  ARG120      0.2592
    126  O         -5.7340   22.2500   11.2510 O.2   120  ARG120     -0.2718
    127  CB        -5.9360   19.2360   11.4910 C.3   120  ARG120      0.0321
    128  CG        -4.4800   18.7860   11.4010 C.3   120  ARG120      0.0489
    129  CD        -4.3140   17.7080   10.3360 C.3   120  ARG120      0.2205
    130  NE        -4.3030   18.2780    8.9930 N.pl3 120  ARG120     -0.0865
    131  CZ        -4.6340   17.6120    7.8930 C.cat 120  ARG120      0.5346
    132  NH1       -5.0190   16.3390    7.9670 N.pl3 120  ARG120      0.1354
    133  NH2       -4.5670   18.2130    6.7180 N.pl3 120  ARG120      0.1354
    134  N         -4.4060   21.8570   13.0180 N.am  121  ASN121     -0.1961
    135  CA        -3.5980   23.0490   12.7880 C.3   121  ASN121      0.1804
    136  C         -2.8830   22.9830   11.4410 C.2   121  ASN121      0.2463
    137  O         -2.1480   22.0360   11.1640 O.2   121  ASN121     -0.2730
    138  CB        -2.5580   23.2110   13.8990 C.3   121  ASN121      0.1195
    139  CG        -1.9360   24.5940   13.9120 C.2   121  ASN121      0.2630
    140  OD1       -1.8870   25.2720   12.8840 O.2   121  ASN121     -0.2716
    141  ND2       -1.4540   25.0200   15.0770 N.am  121  ASN121     -0.0877
    142  N         -3.0880   23.9990   10.5850 N.am  122  PRO122     -0.2716
    143  CA        -2.4380   24.0230    9.2690 C.3   122  PRO122      0.1536
    144  C         -0.9200   24.0280    9.4180 C.2   122  PRO122      0.2598
    145  O         -0.2020   23.4210    8.6260 O.2   122  PRO122     -0.2715
    146  CB        -2.9460   25.3250    8.6530 C.3   122  PRO122      0.0310
    147  CG        -4.2820   25.5120    9.3010 C.3   122  PRO122      0.0237
    148  CD        -4.0000   25.1430   10.7380 C.3   122  PRO122      0.0939
    149  N         -0.4420   24.7310   10.4400 N.am  123  LYS123     -0.1964
    150  CA         0.9860   24.8270   10.6990 C.3   123  LYS123      0.1728
    151  C          1.4470   23.7330   11.6410 C.2   123  LYS123      0.2617
    152  O          0.8440   23.5000   12.6910 O.2   123  LYS123     -0.2715
    153  CB         1.3390   26.2010   11.2880 C.3   123  LYS123      0.0311
    154  CG         1.3030   27.3380   10.2730 C.3   123  LYS123      0.0038
    155  CD         1.7330   28.6530   10.9040 C.3   123  LYS123      0.0206
    156  CE         1.9410   29.7360    9.8510 C.3   123  LYS123      0.1093
    157  NZ         0.7220   29.9500    9.0160 N.3   123  LYS123     -0.1314
    158  N          2.5220   23.0600   11.2460 N.am  124  GLY124     -0.1940
    159  CA         3.0780   21.9930   12.0470 C.3   124  GLY124      0.2014
    160  C          4.5260   22.3040   12.3530 C.2   124  GLY124      0.2639
    161  O          5.0500   23.3390   11.9320 O.2   124  GLY124     -0.2714
    162  N          5.1780   21.4030   13.0770 N.am  125  PHE125     -0.1959
    163  CA         6.5710   21.5890   13.4590 C.3   125  PHE125      0.1774
    164  C          7.2930   20.2470   13.3340 C.2   125  PHE125      0.2659
    165  O          6.8050   19.2260   13.8210 O.2   125  PHE125     -0.2711
    166  CB         6.6290   22.0890   14.9030 C.3   125  PHE125      0.0574
    167  CG         7.9440   22.6930   15.2890 C.ar  125  PHE125     -0.0200
    168  CD1        8.3900   23.8650   14.6840 C.ar  125  PHE125     -0.0042
    169  CD2        8.7240   22.1080   16.2800 C.ar  125  PHE125     -0.0042
    170  CE1        9.5930   24.4490   15.0630 C.ar  125  PHE125     -0.0003
    171  CE2        9.9300   22.6850   16.6680 C.ar  125  PHE125     -0.0003
    172  CZ        10.3650   23.8600   16.0580 C.ar  125  PHE125     -0.0000
    173  N          8.4490   20.2480   12.6820 N.am  126  GLY126     -0.1716
    174  CA         9.1750   19.0030   12.5140 C.2   126  GLY126      0.1480
    175  C         10.4040   19.0570   11.6230 C.2   126  GLY126      0.2820
    176  O         11.0300   20.1120   11.4560 O.2   126  GLY126     -0.2669
    177  N         10.7310   17.9100   11.0270 N.am  127  TYR127     -0.1925
    178  CA        11.9110   17.7830   10.1830 C.3   127  TYR127      0.1774
    179  C         11.6230   17.3860    8.7370 C.2   127  TYR127      0.2620
    180  O         11.0330   16.3310    8.4800 O.2   127  TYR127     -0.2715
    181  CB        12.8600   16.7510   10.8060 C.3   127  TYR127      0.0574
    182  CG        13.2050   17.0230   12.2550 C.ar  127  TYR127     -0.0198
    183  CD1       12.3360   16.6650   13.2860 C.ar  127  TYR127     -0.0009
    184  CD2       14.3960   17.6680   12.5900 C.ar  127  TYR127     -0.0009
    185  CE1       12.6480   16.9470   14.6180 C.ar  127  TYR127      0.0417
    186  CE2       14.7160   17.9520   13.9080 C.ar  127  TYR127      0.0417
    187  CZ        13.8440   17.5920   14.9160 C.ar  127  TYR127      0.1957
    188  OH        14.1820   17.8800   16.2160 O.3   127  TYR127     -0.2866
    189  N         12.0420   18.2270    7.7930 N.am  128  VAL128     -0.1963
    190  CA        11.8430   17.9290    6.3770 C.3   128  VAL128      0.1727
    191  C         12.7530   16.7680    5.9760 C.2   128  VAL128      0.2616
    192  O         12.3980   15.9510    5.1280 O.2   128  VAL128     -0.2715
    193  CB        12.1580   19.1570    5.4770 C.3   128  VAL128      0.0290
    194  CG1       12.1450   18.7480    4.0160 C.3   128  VAL128      0.0023
    195  CG2       11.1250   20.2600    5.7100 C.3   128  VAL128      0.0023
    196  N         13.9310   16.7030    6.5850 N.am  129  THR129     -0.1951
    197  CA        14.8800   15.6250    6.3060 C.3   129  THR129      0.1897
    198  C         15.1190   14.8480    7.5950 C.2   129  THR129      0.2313
    199  O         16.2240   14.8480    8.1540 O.2   129  THR129     -0.2863
    200  CB        16.2250   16.1720    5.7770 C.3   129  THR129      0.1794
    201  OG1       16.7140   17.1800    6.6670 O.3   129  THR129     -0.2208
    202  CG2       16.0480   16.7710    4.3860 C.3   129  THR129      0.0378
@<TRIPOS>BOND
     1     7     5    1
     2     1     2    1
     3     5     2    1
     4     5     6    1
     5     2     3    1
     6    36    38   ar
     7    36    34   ar
     8     4     3    2
     9    33    34    1
    10    33    30    1
    11    31    30    1
    12    31    32    2
    13    38    37   ar
    14    34    35   ar
    15    30    29    1
    16   194   193    1
    17   202   200    1
    18    37    35   ar
    19   192   191    2
    20   193   195    1
    21   193   190    1
    22   200   197    1
    23   200   201    1
    24    27    26    1
    25   191   190    1
    26   191   196   am
    27   197   196    1
    28   197   198    1
    29   190   189    1
    30    17    15   ar
    31    17    16   ar
    32    15    13   ar
    33    24    23    1
    34    24    25    1
    35   133   131    1
    36    26    25    2
    37    26    28    1
    38    47    49   ar
    39    47    45   ar
    40    23    22    1
    41    49    48   ar
    42     8     9    1
    43   198   199    2
    44    16    14   ar
    45   189   179   am
    46    13    14   ar
    47    13    12    1
    48   131   132    1
    49   131   130    2
    50    45    44   ar
    51   180   179    2
    52    48    46   ar
    53    12     9    1
    54   145   144    2
    55     9    10    1
    56   146   143    1
    57   146   147    1
    58    22    19    1
    59    20    21    2
    60    20    19    1
    61   179   178    1
    62   130   129    1
    63   157   156    1
    64    19    18    1
    65   143   144    1
    66   143   142    1
    67    11    10    2
    68   147   148    1
    69   144   149   am
    70    44    46   ar
    71    44    43    1
    72   156   155    1
    73    58    59   ar
    74    58    56   ar
    75    59    57   ar
    76   178   181    1
    77   178   177    1
    78   154   155    1
    79   154   153    1
    80   129   128    1
    81   149   150    1
    82    43    40    1
    83   142   148    1
    84   142   136   am
    85   150   153    1
    86   150   151    1
    87   181   182    1
    88    39    40    1
    89   177   175   am
    90    56    55   ar
    91   137   136    2
    92    57    55   ar
    93   158   151   am
    94   158   159    1
    95   126   125    2
    96   128   127    1
    97   136   135    1
    98   176   175    2
    99   127   124    1
   100    40    41    1
   101   175   174    1
   102   151   152    2
   103    55    54    1
   104   161   160    2
   105   159   160    1
   106   125   124    1
   107   125   134   am
   108   182   184   ar
   109   182   183   ar
   110   160   162   am
   111    42    41    2
   112   174   173    2
   113   116   115    1
   114   124   123    1
   115   184   186   ar
   116   173   164    1
   117   135   134    1
   118   135   138    1
   119   140   139    2
   120   162   163    1
   121    54    51    1
   122   183   185   ar
   123   164   163    1
   124   164   165    2
   125   163   166    1
   126   138   139    1
   127   186   187   ar
   128   139   141   am
   129   115   114    1
   130   115   117    1
   131   114   111    1
   132    68    66   ar
   133    51    50    1
   134    51    52    1
   135   185   187   ar
   136   168   170   ar
   137   168   167   ar
   138    65    66    1
   139    65    64    1
   140   122   119    1
   141   109   107    1
   142   166   167    1
   143    66    67   ar
   144   187   188    1
   145   170   172   ar
   146   118   119    1
   147   118   112   am
   148   119   120    1
   149   167   169   ar
   150   108   107    1
   151   111   110    1
   152   111   112    1
   153   110   104   am
   154   112   113    2
   155    52    53    2
   156   107   106    1
   157   101   100    1
   158   106   103    1
   159    64    61    1
   160   172   171   ar
   161   169   171   ar
   162    83    84    1
   163    83    82    1
   164   103   104    1
   165   103   102    1
   166   104   105    2
   167   120   121    2
   168    60    61    1
   169   100    99    1
   170    61    62    1
   171    99    98    1
   172    82    81    1
   173    81    78    1
   174    62    63    2
   175    62    69   am
   176    98    97    1
   177    97    94    1
   178    69    70    1
   179    96    95    2
   180    78    77    1
   181    78    79    1
   182    72    71    2
   183    77    71   am
   184    71    70    1
   185    94    93    1
   186    94    95    1
   187    70    73    1
   188    88    87    2
   189    79    85   am
   190    79    80    2
   191    85    86    1
   192    87    86    1
   193    73    74    1
   194    73    75    1
   195    74    76    1
   196    86    89    1
   197    89    90    1
   198    92    90   ar
   199    90    91   ar
