@<TRIPOS>MOLECULE
tmp/1lb6A00.pdb
 188 186 0 0 0
SMALL
GASTEIGER

@<TRIPOS>ATOM
      1  N          4.5310   13.9800   10.1410 N.3    46  ARG46      -0.1245
      2  CA         4.6080   14.0390    8.6930 C.3    46  ARG46       0.1563
      3  C          5.9710   13.5120    8.2770 C.2    46  ARG46       0.2260
      4  O          6.9910   14.0240    8.7310 O.2    46  ARG46      -0.2867
      5  CB         4.4770   15.4930    8.2530 C.3    46  ARG46       0.0307
      6  CG         4.7610   15.7730    6.7890 C.3    46  ARG46       0.0489
      7  CD         4.7470   17.2880    6.6310 C.3    46  ARG46       0.2205
      8  NE         4.6560   17.7480    5.2550 N.pl3  46  ARG46      -0.0865
      9  CZ         3.7260   17.3450    4.3950 C.cat  46  ARG46       0.5346
     10  NH1        2.8110   16.4700    4.7620 N.pl3  46  ARG46       0.1354
     11  NH2        3.6870   17.8480    3.1780 N.pl3  46  ARG46       0.1354
     12  N          8.3880   12.6390    4.9370 N.3    48  HIS48      -0.1241
     13  CA         8.6410   12.8710    3.5160 C.3    48  HIS48       0.1621
     14  C          9.8900   12.1080    3.1080 C.2    48  HIS48       0.2264
     15  O         10.8730   12.1460    3.8300 O.2    48  HIS48      -0.2867
     16  CB         9.0190   14.3360    3.2670 C.3    48  HIS48       0.0745
     17  CG         7.8990   15.2280    2.8520 C.ar   48  HIS48       0.0817
     18  ND1        6.7850   15.4460    3.6300 N.ar   48  HIS48      -0.2268
     19  CD2        7.7750   16.0460    1.7780 C.ar   48  HIS48       0.1154
     20  CE1        6.0250   16.3620    3.0570 C.ar   48  HIS48       0.1986
     21  NE2        6.6020   16.7430    1.9330 N.ar   48  HIS48      -0.2212
     22  N          8.3590   15.8890   10.4010 N.3    64  PHE64      -0.1241
     23  CA         7.7960   17.0800   11.0310 C.3    64  PHE64       0.1605
     24  C          6.6200   16.7610   11.9430 C.2    64  PHE64       0.2264
     25  O          6.0540   15.6710   11.8980 O.2    64  PHE64      -0.2867
     26  CB         7.3270   18.1080    9.9840 C.3    64  PHE64       0.0534
     27  CG         8.4480   18.7860    9.2460 C.ar   64  PHE64      -0.0203
     28  CD1        9.1630   18.1140    8.2660 C.ar   64  PHE64      -0.0042
     29  CD2        8.8230   20.0850    9.5780 C.ar   64  PHE64      -0.0042
     30  CE1       10.2410   18.7200    7.6260 C.ar   64  PHE64      -0.0003
     31  CE2        9.9000   20.7030    8.9460 C.ar   64  PHE64      -0.0003
     32  CZ        10.6130   20.0150    7.9660 C.ar   64  PHE64      -0.0000
     33  N          2.8680   18.4130   13.4390 N.3    66  HIS66      -0.1241
     34  CA         1.7850   19.3600   13.1830 C.3    66  HIS66       0.1621
     35  C          0.8140   19.3380   14.3510 C.2    66  HIS66       0.2264
     36  O          0.5140   18.2710   14.8890 O.2    66  HIS66      -0.2867
     37  CB         0.9760   18.9530   11.9440 C.3    66  HIS66       0.0745
     38  CG         1.6870   19.1520   10.6400 C.ar   66  HIS66       0.0817
     39  ND1        1.7590   20.3740   10.0090 N.ar   66  HIS66      -0.2268
     40  CD2        2.3330   18.2740    9.8370 C.ar   66  HIS66       0.1154
     41  CE1        2.4200   20.2400    8.8720 C.ar   66  HIS66       0.1986
     42  NE2        2.7790   18.9750    8.7440 N.ar   66  HIS66      -0.2212
     43  N         16.3380   13.0840   17.4150 N.3   102  GLU102     -0.1231
     44  CA        16.6040   14.5000   17.6070 C.3   102  GLU102      0.1699
     45  C         15.5880   14.9380   18.6580 C.2   102  GLU102      0.2592
     46  O         14.5150   14.3420   18.7720 O.2   102  GLU102     -0.2718
     47  CB        16.3640   15.2840   16.3120 C.3   102  GLU102      0.0402
     48  CG        17.2770   14.9220   15.1530 C.3   102  GLU102      0.1161
     49  CD        18.7250   15.3350   15.3760 C.2   102  GLU102      0.3649
     50  OE1       19.0320   15.9620   16.4180 O.co2 102  GLU102     -0.2457
     51  OE2       19.5540   15.0370   14.4940 O.co2 102  GLU102     -0.2457
     52  N         15.9360   15.9650   19.4290 N.am  103  ILE103     -0.1966
     53  CA        15.0540   16.5010   20.4600 C.3   103  ILE103      0.1727
     54  C         14.9050   17.9840   20.1480 C.2   103  ILE103      0.2616
     55  O         15.8990   18.6860   19.9620 O.2   103  ILE103     -0.2715
     56  CB        15.6700   16.3510   21.8690 C.3   103  ILE103      0.0290
     57  CG1       16.0440   14.8890   22.1250 C.3   103  ILE103      0.0022
     58  CG2       14.6660   16.8260   22.9270 C.3   103  ILE103      0.0023
     59  CD1       16.7630   14.6650   23.4320 C.3   103  ILE103      0.0001
     60  N         13.6730   18.4690   20.0830 N.am  104  MET104     -0.1963
     61  CA        13.4720   19.8700   19.7610 C.3   104  MET104      0.1736
     62  C         12.5600   20.5840   20.7390 C.2   104  MET104      0.2616
     63  O         11.5630   20.0270   21.1910 O.2   104  MET104     -0.2715
     64  CB        12.9290   19.9980   18.3290 C.3   104  MET104      0.0427
     65  CG        11.5780   19.3330   18.0750 C.3   104  MET104      0.0599
     66  SD        11.1040   19.2770   16.3020 S.3   104  MET104     -0.1393
     67  CE         9.4330   18.6340   16.4520 C.3   104  MET104      0.0692
     68  N         12.9290   21.8080   21.0980 N.am  105  ASP105     -0.1971
     69  CA        12.1010   22.5980   21.9950 C.3   105  ASP105      0.1709
     70  C         11.1370   23.3810   21.1270 C.2   105  ASP105      0.2293
     71  O         11.5150   23.8920   20.0740 O.2   105  ASP105     -0.2864
     72  CB        12.9250   23.5920   22.8180 C.3   105  ASP105      0.1436
     73  CG        13.7300   22.9270   23.9160 C.2   105  ASP105      0.3671
     74  OD1       13.1770   22.0480   24.6180 O.co2 105  ASP105     -0.2456
     75  OD2       14.9070   23.3090   24.1020 O.co2 105  ASP105     -0.2456
     76  N          8.9420   26.4510   19.8540 N.3   107  LYS107     -0.1245
     77  CA         9.2200   27.8830   19.8220 C.3   107  LYS107      0.1561
     78  C          7.8510   28.5490   19.7330 C.2   107  LYS107      0.2260
     79  O          7.2540   28.6460   18.6590 O.2   107  LYS107     -0.2867
     80  CB        10.1100   28.2400   18.6170 C.3   107  LYS107      0.0271
     81  CG        11.4680   27.5220   18.6380 C.3   107  LYS107      0.0035
     82  CD        12.3760   27.8660   17.4510 C.3   107  LYS107      0.0206
     83  CE        13.0290   29.2380   17.5770 C.3   107  LYS107      0.1093
     84  NZ        14.0520   29.4280   16.4970 N.3   107  LYS107     -0.1314
     85  N          6.3510   30.7850   16.9430 N.3   110  LEU110     -0.1231
     86  CA         5.9770   30.2360   15.6420 C.3   110  LEU110      0.1693
     87  C          4.5320   29.7580   15.6070 C.2   110  LEU110      0.2592
     88  O          4.0760   29.0730   16.5250 O.2   110  LEU110     -0.2718
     89  CB         6.9010   29.0680   15.2850 C.3   110  LEU110      0.0284
     90  CG         8.3970   29.3600   15.2140 C.3   110  LEU110      0.0019
     91  CD1        9.1420   28.0800   14.8560 C.3   110  LEU110      0.0001
     92  CD2        8.6620   30.4430   14.1750 C.3   110  LEU110      0.0001
     93  N          3.8160   30.1070   14.5410 N.am  111  LEU111     -0.1966
     94  CA         2.4220   29.7060   14.4090 C.3   111  LEU111      0.1728
     95  C          2.2410   28.1920   14.3380 C.2   111  LEU111      0.2616
     96  O          1.1290   27.6880   14.4860 O.2   111  LEU111     -0.2715
     97  CB         1.7760   30.3890   13.1970 C.3   111  LEU111      0.0311
     98  CG         1.5150   31.8900   13.3800 C.3   111  LEU111      0.0022
     99  CD1        2.8370   32.6390   13.5130 C.3   111  LEU111      0.0001
    100  CD2        0.7480   32.4260   12.1910 C.3   111  LEU111      0.0001
    101  N          3.3330   27.4650   14.1220 N.am  112  ALA112     -0.1977
    102  CA         3.2620   26.0080   14.0850 C.3   112  ALA112      0.1597
    103  C          2.8250   25.5050   15.4670 C.2   112  ALA112      0.2287
    104  O          2.3000   24.4000   15.6000 O.2   112  ALA112     -0.2864
    105  CB         4.6240   25.4190   13.7250 C.3   112  ALA112      0.0319
    106  N         -5.7860   20.4370   10.3890 N.3   120  ARG120     -0.1245
    107  CA        -4.3450   20.2810   10.5620 C.3   120  ARG120      0.1563
    108  C         -3.6160   21.5860   10.2460 C.2   120  ARG120      0.2260
    109  O         -3.8430   22.2120    9.2130 O.2   120  ARG120     -0.2867
    110  CB        -3.8140   19.1510    9.6660 C.3   120  ARG120      0.0307
    111  CG        -2.3690   18.7320    9.9730 C.3   120  ARG120      0.0489
    112  CD        -1.9680   17.5220    9.1400 C.3   120  ARG120      0.2205
    113  NE        -1.7570   17.8750    7.7430 N.pl3 120  ARG120     -0.0865
    114  CZ        -1.8900   17.0250    6.7310 C.cat 120  ARG120      0.5346
    115  NH1       -2.2390   15.7670    6.9570 N.pl3 120  ARG120      0.1354
    116  NH2       -1.6520   17.4320    5.4970 N.pl3 120  ARG120      0.1354
    117  N         -1.3190   24.1740    8.8070 N.3   122  PRO122     -0.2102
    118  CA        -0.5700   24.1910    7.5470 C.3   122  PRO122      0.1504
    119  C          0.9330   24.2370    7.8470 C.2   122  PRO122      0.2576
    120  O          1.7550   23.7180    7.0880 O.2   122  PRO122     -0.2718
    121  CB        -1.0640   25.4800    6.8790 C.3   122  PRO122      0.0282
    122  CG        -2.4760   25.6340    7.4360 C.3   122  PRO122      0.0208
    123  CD        -2.1950   25.3530    8.9000 C.3   122  PRO122      0.0893
    124  N          1.2830   24.8730    8.9620 N.am  123  LYS123     -0.1966
    125  CA         2.6780   24.9830    9.3740 C.3   123  LYS123      0.1728
    126  C          3.0870   23.8100   10.2590 C.2   123  LYS123      0.2617
    127  O          2.3720   23.4420   11.1910 O.2   123  LYS123     -0.2715
    128  CB         2.9030   26.2980   10.1260 C.3   123  LYS123      0.0311
    129  CG         2.9000   27.5240    9.2300 C.3   123  LYS123      0.0038
    130  CD         2.8550   28.8020   10.0360 C.3   123  LYS123      0.0206
    131  CE         3.2260   30.0010    9.1760 C.3   123  LYS123      0.1093
    132  NZ         2.4070   30.0700    7.9320 N.3   123  LYS123     -0.1314
    133  N          4.2390   23.2270    9.9480 N.am  124  GLY124     -0.1940
    134  CA         4.7580   22.1100   10.7170 C.3   124  GLY124      0.2014
    135  C          6.1580   22.4630   11.1820 C.2   124  GLY124      0.2639
    136  O          6.7920   23.3430   10.5990 O.2   124  GLY124     -0.2714
    137  N          6.6440   21.7850   12.2180 N.am  125  PHE125     -0.1959
    138  CA         7.9720   22.0550   12.7620 C.3   125  PHE125      0.1774
    139  C          8.7770   20.7540   12.8050 C.2   125  PHE125      0.2659
    140  O          8.3180   19.7380   13.3310 O.2   125  PHE125     -0.2711
    141  CB         7.8360   22.6460   14.1740 C.3   125  PHE125      0.0574
    142  CG         9.1030   23.2600   14.7050 C.ar  125  PHE125     -0.0200
    143  CD1        9.6510   24.3920   14.1060 C.ar  125  PHE125     -0.0042
    144  CD2        9.7390   22.7150   15.8130 C.ar  125  PHE125     -0.0042
    145  CE1       10.8170   24.9780   14.6080 C.ar  125  PHE125     -0.0003
    146  CE2       10.9060   23.2890   16.3260 C.ar  125  PHE125     -0.0003
    147  CZ        11.4460   24.4220   15.7230 C.ar  125  PHE125     -0.0000
    148  N          9.9780   20.7740   12.2450 N.am  126  GLY126     -0.1716
    149  CA        10.7660   19.5570   12.2420 C.2   126  GLY126      0.1480
    150  C         12.0690   19.6330   11.4740 C.2   126  GLY126      0.2820
    151  O         12.6740   20.7040   11.3570 O.2   126  GLY126     -0.2669
    152  N         12.4820   18.4930   10.9270 N.am  127  TYR127     -0.1925
    153  CA        13.7510   18.3920   10.2110 C.3   127  TYR127      0.1774
    154  C         13.6620   17.9030    8.7720 C.2   127  TYR127      0.2620
    155  O         13.2310   16.7810    8.5190 O.2   127  TYR127     -0.2715
    156  CB        14.6990   17.4480   10.9620 C.3   127  TYR127      0.0574
    157  CG        14.8420   17.7320   12.4360 C.ar  127  TYR127     -0.0198
    158  CD1       13.8530   17.3460   13.3460 C.ar  127  TYR127     -0.0009
    159  CD2       15.9570   18.4080   12.9210 C.ar  127  TYR127     -0.0009
    160  CE1       13.9740   17.6340   14.7120 C.ar  127  TYR127      0.0417
    161  CE2       16.0900   18.7010   14.2770 C.ar  127  TYR127      0.0417
    162  CZ        15.1000   18.3150   15.1680 C.ar  127  TYR127      0.1957
    163  OH        15.2510   18.6240   16.5050 O.3   127  TYR127     -0.2866
    164  N         14.0970   18.7380    7.8350 N.am  128  VAL128     -0.1963
    165  CA        14.0950   18.3600    6.4320 C.3   128  VAL128      0.1727
    166  C         15.0790   17.2160    6.2360 C.2   128  VAL128      0.2617
    167  O         14.8010   16.2690    5.5020 O.2   128  VAL128     -0.2715
    168  CB        14.4920   19.5560    5.5230 C.3   128  VAL128      0.0290
    169  CG1       14.6280   19.0950    4.0610 C.3   128  VAL128      0.0023
    170  CG2       13.4280   20.6420    5.6160 C.3   128  VAL128      0.0023
    171  N         16.2240   17.2970    6.9110 N.am  129  THR129     -0.1937
    172  CA        17.2490   16.2590    6.8220 C.3   129  THR129      0.2028
    173  C         17.3280   15.4590    8.1280 C.2   129  THR129      0.2642
    174  O         18.3720   15.4210    8.7780 O.2   129  THR129     -0.2714
    175  CB        18.6420   16.8820    6.5140 C.3   129  THR129      0.1808
    176  OG1       18.9600   17.8760    7.5000 O.3   129  THR129     -0.2208
    177  CG2       18.6340   17.5440    5.1390 C.3   129  THR129      0.0379
    178  N         16.2270   14.8120    8.5050 N.am  130  PHE130     -0.1973
    179  CA        16.1930   14.0360    9.7370 C.3   130  PHE130      0.1639
    180  C         17.1540   12.8570    9.6990 C.2   130  PHE130      0.2290
    181  O         17.9610   12.6690   10.6120 O.2   130  PHE130     -0.2864
    182  CB        14.7850   13.5080   10.0140 C.3   130  PHE130      0.0560
    183  CG        14.6510   12.8440   11.3530 C.ar  130  PHE130     -0.0200
    184  CD1       14.6420   13.6040   12.5210 C.ar  130  PHE130     -0.0042
    185  CD2       14.5880   11.4580   11.4550 C.ar  130  PHE130     -0.0042
    186  CE1       14.5710   12.9920   13.7660 C.ar  130  PHE130     -0.0003
    187  CE2       14.5180   10.8400   12.6960 C.ar  130  PHE130     -0.0003
    188  CZ        14.5090   11.6080   13.8550 C.ar  130  PHE130     -0.0000
@<TRIPOS>BOND
     1    19    21   ar
     2    19    17   ar
     3    21    20   ar
     4    17    16    1
     5    17    18   ar
     6    20    18   ar
     7    14    13    1
     8    14    15    2
     9    11     9    1
    10    16    13    1
    11    13    12    1
    12   169   168    1
    13     9    10    1
    14     9     8    2
    15   177   175    1
    16     8     7    1
    17   116   114    1
    18   167   166    2
    19   168   170    1
    20   168   165    1
    21   166   165    1
    22   166   171   am
    23   165   164    1
    24   175   172    1
    25   175   176    1
    26     7     6    1
    27   114   115    1
    28   114   113    2
    29     6     5    1
    30   172   171    1
    31   172   173    1
    32   121   122    1
    33   121   118    1
    34   120   119    2
    35   122   123    1
    36   118   119    1
    37   118   117    1
    38    30    32   ar
    39    30    28   ar
    40   113   112    1
    41   164   154   am
    42   119   124   am
    43   132   131    1
    44    32    31   ar
    45   173   178   am
    46   173   174    2
    47     5     2    1
    48    28    27   ar
    49     3     2    1
    50     3     4    2
    51   178   179    1
    52   155   154    2
    53     2     1    1
    54    42    41   ar
    55    42    40   ar
    56   154   153    1
    57   117   123    1
    58    41    39   ar
    59    31    29   ar
    60   124   125    1
    61   112   111    1
    62   131   130    1
    63   109   108    2
    64   129   130    1
    65   129   128    1
    66    27    29   ar
    67    27    26    1
    68   125   128    1
    69   125   126    1
    70   110   111    1
    71   110   107    1
    72   180   179    1
    73   180   181    2
    74   179   182    1
    75    40    38   ar
    76   133   126   am
    77   133   134    1
    78    26    23    1
    79    39    38   ar
    80   182   183    1
    81   153   152    1
    82   153   156    1
    83   108   107    1
    84   126   127    2
    85   106   107    1
    86    22    23    1
    87   136   135    2
    88    38    37    1
    89   134   135    1
    90   152   150   am
    91   156   157    1
    92    23    24    1
    93   135   137   am
    94   183   185   ar
    95   183   184   ar
    96   151   150    2
    97   185   187   ar
    98   150   149    1
    99    25    24    2
   100    37    34    1
   101   100    98    1
   102   137   138    1
   103   149   148    2
   104   148   139    1
   105   157   159   ar
   106   157   158   ar
   107   184   186   ar
   108   187   188   ar
   109   138   139    1
   110   138   141    1
   111   139   140    2
   112   159   161   ar
   113    34    33    1
   114    34    35    1
   115    97    98    1
   116    97    94    1
   117   158   160   ar
   118    98    99    1
   119   105   102    1
   120   186   188   ar
   121   102   101    1
   122   102   103    1
   123   143   145   ar
   124   143   142   ar
   125   101    95   am
   126   141   142    1
   127    92    90    1
   128   161   162   ar
   129    95    94    1
   130    95    96    2
   131    35    36    2
   132    94    93    1
   133    51    49   ar
   134    93    87   am
   135   145   147   ar
   136   142   144   ar
   137   160   162   ar
   138    91    90    1
   139    48    49    1
   140    48    47    1
   141   162   163    1
   142    90    89    1
   143    89    86    1
   144    49    50   ar
   145   103   104    2
   146    87    86    1
   147    87    88    2
   148    86    85    1
   149   147   146   ar
   150   144   146   ar
   151    66    67    1
   152    66    65    1
   153    47    44    1
   154    84    83    1
   155    43    44    1
   156    82    83    1
   157    82    81    1
   158    44    45    1
   159    65    64    1
   160    64    61    1
   161    80    81    1
   162    80    77    1
   163    45    46    2
   164    45    52   am
   165    79    78    2
   166    52    53    1
   167    78    77    1
   168    61    60    1
   169    61    62    1
   170    77    76    1
   171    55    54    2
   172    71    70    2
   173    60    54   am
   174    54    53    1
   175    53    56    1
   176    62    68   am
   177    62    63    2
   178    68    69    1
   179    70    69    1
   180    56    57    1
   181    56    58    1
   182    69    72    1
   183    57    59    1
   184    72    73    1
   185    73    75   ar
   186    73    74   ar
