@<TRIPOS>MOLECULE
tmp/1lbfA00.pdb
 201 190 0 0 0
SMALL
GASTEIGER

@<TRIPOS>ATOM
      1  N        -20.4760  -21.6540   40.7050 N.3     7  TRP7       -0.1241
      2  CA       -19.3200  -22.4910   40.9550 C.3     7  TRP7        0.1605
      3  C        -18.1660  -21.7180   41.6020 C.2     7  TRP7        0.2264
      4  O        -17.4130  -22.2920   42.3920 O.2     7  TRP7       -0.2867
      5  CB       -18.8750  -23.2100   39.6660 C.3     7  TRP7        0.0550
      6  CG       -17.9300  -22.4310   38.7750 C.ar    7  TRP7        0.0003
      7  CD1      -18.2590  -21.4740   37.8460 C.ar    7  TRP7        0.0946
      8  CD2      -16.5000  -22.5490   38.7350 C.ar    7  TRP7        0.0152
      9  NE1      -17.1260  -20.9990   37.2440 N.ar    7  TRP7       -0.2442
     10  CE2      -16.0330  -21.6360   37.7700 C.ar    7  TRP7        0.0810
     11  CE3      -15.5720  -23.3400   39.4320 C.ar    7  TRP7        0.0012
     12  CZ2      -14.6710  -21.4930   37.4740 C.ar    7  TRP7        0.0191
     13  CZ3      -14.2110  -23.1950   39.1320 C.ar    7  TRP7        0.0001
     14  CH2      -13.7800  -22.2770   38.1650 C.ar    7  TRP7        0.0015
     15  N          0.9550  -25.3770   30.7900 N.3    50  GLU50      -0.1245
     16  CA         0.1580  -25.7200   31.9540 C.3    50  GLU50       0.1567
     17  C         -0.2420  -27.1740   31.9910 C.2    50  GLU50       0.2260
     18  O         -0.5620  -27.7730   30.9630 O.2    50  GLU50      -0.2867
     19  CB        -1.1050  -24.8790   31.9970 C.3    50  GLU50       0.0388
     20  CG        -2.0190  -25.1260   33.1800 C.3    50  GLU50       0.1160
     21  CD        -3.0350  -24.0140   33.2980 C.2    50  GLU50       0.3649
     22  OE1       -4.1640  -24.1720   32.7860 O.co2  50  GLU50      -0.2457
     23  OE2       -2.6940  -22.9740   33.8960 O.co2  50  GLU50      -0.2457
     24  N         -3.0070  -29.6440   33.5480 N.3    52  LYS52      -0.1245
     25  CA        -4.3210  -29.7710   34.1710 C.3    52  LYS52       0.1561
     26  C         -4.9940  -30.9780   33.5220 C.2    52  LYS52       0.2260
     27  O         -5.0630  -31.0660   32.2980 O.2    52  LYS52      -0.2867
     28  CB        -5.1800  -28.4970   34.0270 C.3    52  LYS52       0.0271
     29  CG        -5.5730  -28.1120   32.6460 C.3    52  LYS52       0.0035
     30  CD        -6.4710  -26.8740   32.6520 C.3    52  LYS52       0.0206
     31  CE        -6.5770  -26.3430   31.2380 C.3    52  LYS52       0.1093
     32  NZ        -7.3490  -25.1090   31.1680 N.3    52  LYS52      -0.1314
     33  N        -11.0270  -29.8200   33.4460 N.3    55  SER55      -0.1203
     34  CA       -11.4090  -28.4070   33.5300 C.3    55  SER55       0.2005
     35  C        -12.9180  -28.2920   33.4250 C.2    55  SER55       0.2461
     36  O        -13.5730  -29.1200   32.7800 O.2    55  SER55      -0.2732
     37  CB       -10.7670  -27.5590   32.4270 C.3    55  SER55       0.2103
     38  OG       -11.4370  -27.7580   31.1950 O.3    55  SER55      -0.2182
     39  N        -13.5000  -27.2620   34.0640 N.am   56  PRO56      -0.2717
     40  CA       -14.9570  -27.1010   33.9850 C.3    56  PRO56       0.1535
     41  C        -15.4710  -26.9540   32.5400 C.2    56  PRO56       0.2599
     42  O        -16.6350  -27.2210   32.2690 O.2    56  PRO56      -0.2715
     43  CB       -15.2410  -25.8370   34.8010 C.3    56  PRO56       0.0310
     44  CG       -14.0010  -25.5630   35.5890 C.3    56  PRO56       0.0237
     45  CD       -12.8500  -26.2230   34.8870 C.3    56  PRO56       0.0939
     46  N        -14.6200  -26.5230   31.6120 N.am   57  SER57      -0.1950
     47  CA       -15.0600  -26.3730   30.2370 C.3    57  SER57       0.1924
     48  C        -15.0250  -27.7010   29.4800 C.2    57  SER57       0.2314
     49  O        -15.3260  -27.7410   28.2860 O.2    57  SER57      -0.2863
     50  CB       -14.2530  -25.2950   29.4890 C.3    57  SER57       0.2116
     51  OG       -12.9540  -25.7440   29.1640 O.3    57  SER57      -0.2180
     52  N         -2.0550  -26.7380   38.1260 N.3    82  LEU82      -0.1245
     53  CA        -3.3450  -26.5540   38.8090 C.3    82  LEU82       0.1561
     54  C         -3.3380  -27.3700   40.1010 C.2    82  LEU82       0.2260
     55  O         -3.0700  -28.5650   40.0710 O.2    82  LEU82      -0.2867
     56  CB        -4.5060  -27.0470   37.9320 C.3    82  LEU82       0.0270
     57  CG        -5.3200  -26.0330   37.1170 C.3    82  LEU82       0.0019
     58  CD1       -5.9710  -25.0100   38.0620 C.3    82  LEU82       0.0001
     59  CD2       -4.4360  -25.3500   36.0940 C.3    82  LEU82       0.0001
     60  N        -10.5310  -29.0830   38.7990 N.3    88  PHE88      -0.1241
     61  CA        -9.3900  -29.2870   37.9300 C.3    88  PHE88       0.1605
     62  C         -8.6430  -30.5710   38.2130 C.2    88  PHE88       0.2264
     63  O         -7.7000  -30.9210   37.4900 O.2    88  PHE88      -0.2867
     64  CB        -8.4600  -28.0710   38.0120 C.3    88  PHE88       0.0534
     65  CG        -9.0570  -26.8260   37.4180 C.ar   88  PHE88      -0.0203
     66  CD1       -8.9130  -26.5530   36.0620 C.ar   88  PHE88      -0.0042
     67  CD2       -9.7900  -25.9380   38.2080 C.ar   88  PHE88      -0.0042
     68  CE1       -9.4900  -25.4130   35.5010 C.ar   88  PHE88      -0.0003
     69  CE2      -10.3710  -24.7950   37.6520 C.ar   88  PHE88      -0.0003
     70  CZ       -10.2190  -24.5360   36.3010 C.ar   88  PHE88      -0.0000
     71  N         -1.1800  -22.6120   40.3050 N.3   109  LYS109     -0.1245
     72  CA        -2.4380  -22.0410   39.8630 C.3   109  LYS109      0.1561
     73  C         -3.5750  -22.6640   40.7010 C.2   109  LYS109      0.2260
     74  O         -3.8040  -23.8880   40.6810 O.2   109  LYS109     -0.2867
     75  CB        -2.5770  -22.3220   38.3510 C.3   109  LYS109      0.0271
     76  CG        -3.9320  -22.0300   37.7060 C.3   109  LYS109      0.0035
     77  CD        -4.0380  -20.6550   37.1110 C.3   109  LYS109      0.0206
     78  CE        -3.0690  -20.4080   35.9860 C.3   109  LYS109      0.1093
     79  NZ        -3.6840  -20.4730   34.6430 N.3   109  LYS109     -0.1314
     80  N         -7.1500  -20.9730   43.4580 N.3   111  PHE111     -0.1241
     81  CA        -7.9970  -19.8230   43.7620 C.3   111  PHE111      0.1605
     82  C         -7.5660  -19.4330   45.1560 C.2   111  PHE111      0.2264
     83  O         -8.1110  -19.9190   46.1450 O.2   111  PHE111     -0.2867
     84  CB        -9.4760  -20.2310   43.6870 C.3   111  PHE111      0.0534
     85  CG        -9.8990  -20.6240   42.2990 C.ar  111  PHE111     -0.0203
     86  CD1       -9.5430  -21.8740   41.7800 C.ar  111  PHE111     -0.0042
     87  CD2      -10.5680  -19.7160   41.4740 C.ar  111  PHE111     -0.0042
     88  CE1       -9.8380  -22.2150   40.4560 C.ar  111  PHE111     -0.0003
     89  CE2      -10.8710  -20.0410   40.1470 C.ar  111  PHE111     -0.0003
     90  CZ       -10.5040  -21.2900   39.6360 C.ar  111  PHE111     -0.0000
     91  N         -0.7850  -17.4080   41.4190 N.3   130  LEU130     -0.1245
     92  CA        -1.7820  -16.6220   40.7010 C.3   130  LEU130      0.1561
     93  C         -2.6990  -15.9720   41.7370 C.2   130  LEU130      0.2260
     94  O         -3.1010  -16.6130   42.7110 O.2   130  LEU130     -0.2867
     95  CB        -2.6630  -17.5180   39.8280 C.3   130  LEU130      0.0270
     96  CG        -3.7490  -16.8160   38.9990 C.3   130  LEU130      0.0019
     97  CD1       -3.1040  -16.2250   37.7600 C.3   130  LEU130      0.0001
     98  CD2       -4.8390  -17.8010   38.6000 C.3   130  LEU130      0.0001
     99  N         -4.2290  -11.7490   37.7450 N.3   158  GLU158     -0.1245
    100  CA        -5.1030  -11.9870   36.6120 C.3   158  GLU158      0.1567
    101  C         -6.2580  -11.0190   36.5040 C.2   158  GLU158      0.2260
    102  O         -6.9860  -10.8030   37.4680 O.2   158  GLU158     -0.2867
    103  CB        -5.6350  -13.4210   36.6860 C.3   158  GLU158      0.0388
    104  CG        -6.5000  -13.7960   35.5040 C.3   158  GLU158      0.1160
    105  CD        -6.9220  -15.2410   35.5250 C.2   158  GLU158      0.3649
    106  OE1       -8.1050  -15.4930   35.8030 O.co2 158  GLU158     -0.2457
    107  OE2       -6.0770  -16.1240   35.2610 O.co2 158  GLU158     -0.2457
    108  N         -6.7200  -12.8920   31.0810 N.3   179  ASN179     -0.1240
    109  CA        -7.4570  -14.1070   30.7800 C.3   179  ASN179      0.1653
    110  C         -8.6120  -13.8360   29.8190 C.2   179  ASN179      0.2266
    111  O         -9.5240  -13.0790   30.1420 O.2   179  ASN179     -0.2867
    112  CB        -7.9830  -14.6930   32.0950 C.3   179  ASN179      0.1155
    113  CG        -8.4510  -16.1330   31.9510 C.2   179  ASN179      0.2627
    114  OD1       -8.6060  -16.6400   30.8490 O.2   179  ASN179     -0.2716
    115  ND2       -8.6810  -16.7930   33.0740 N.am  179  ASN179     -0.0877
    116  N        -10.8620  -15.8040   29.0820 N.3   181  ARG181     -0.1245
    117  CA       -12.0370  -16.5380   29.5150 C.3   181  ARG181      0.1563
    118  C        -12.6400  -15.9600   30.7880 C.2   181  ARG181      0.2260
    119  O        -11.9400  -15.7200   31.7730 O.2   181  ARG181     -0.2867
    120  CB       -11.7170  -18.0070   29.7660 C.3   181  ARG181      0.0307
    121  CG       -12.9790  -18.7870   30.1260 C.3   181  ARG181      0.0489
    122  CD       -12.7190  -20.1760   30.6550 C.3   181  ARG181      0.2205
    123  NE       -12.0400  -21.0280   29.6850 N.pl3 181  ARG181     -0.0865
    124  CZ       -12.6340  -21.6430   28.6630 C.cat 181  ARG181      0.5346
    125  NH1      -11.9190  -22.4150   27.8520 N.pl3 181  ARG181      0.1354
    126  NH2      -13.9410  -21.5040   28.4520 N.pl3 181  ARG181      0.1354
    127  N        -14.2880  -16.3020   34.1000 N.3   183  LEU183     -0.1245
    128  CA       -14.3580  -17.3810   35.0890 C.3   183  LEU183      0.1561
    129  C        -15.7670  -17.8000   35.4420 C.2   183  LEU183      0.2260
    130  O        -16.0320  -18.9800   35.6520 O.2   183  LEU183     -0.2867
    131  CB       -13.6500  -17.0040   36.3920 C.3   183  LEU183      0.0270
    132  CG       -12.1530  -16.7370   36.3870 C.3   183  LEU183      0.0019
    133  CD1      -11.6890  -16.5360   37.8250 C.3   183  LEU183      0.0001
    134  CD2      -11.4200  -17.8880   35.7750 C.3   183  LEU183      0.0001
    135  N        -17.5870  -18.7820   31.6600 N.3   186  LEU186     -0.1245
    136  CA       -16.7370  -19.6490   30.8300 C.3   186  LEU186      0.1561
    137  C        -16.6580  -19.2160   29.3570 C.2   186  LEU186      0.2260
    138  O        -16.1380  -19.9390   28.5200 O.2   186  LEU186     -0.2867
    139  CB       -17.1550  -21.1290   30.9170 C.3   186  LEU186      0.0270
    140  CG       -17.3170  -21.8400   32.2670 C.3   186  LEU186      0.0019
    141  CD1      -17.2140  -23.3300   32.0280 C.3   186  LEU186      0.0001
    142  CD2      -16.2700  -21.4180   33.2540 C.3   186  LEU186      0.0001
    143  N         -3.5930  -15.3890   28.6200 N.3   209  GLU209     -0.1231
    144  CA        -4.0800  -16.6750   29.1000 C.3   209  GLU209      0.1699
    145  C         -5.3670  -17.1340   28.4350 C.2   209  GLU209      0.2593
    146  O         -6.2730  -16.3250   28.1940 O.2   209  GLU209     -0.2718
    147  CB        -4.4000  -16.6340   30.5880 C.3   209  GLU209      0.0402
    148  CG        -3.2760  -16.3740   31.5300 C.3   209  GLU209      0.1161
    149  CD        -3.7780  -16.4740   32.9450 C.2   209  GLU209      0.3649
    150  OE1       -4.3850  -15.4980   33.4030 O.co2 209  GLU209     -0.2457
    151  OE2       -3.5750  -17.5240   33.5890 O.co2 209  GLU209     -0.2457
    152  N         -5.4240  -18.4400   28.1610 N.am  210  SER210     -0.1938
    153  CA        -6.5990  -19.1290   27.6460 C.3   210  SER210      0.2055
    154  C         -6.9190  -19.1300   26.1770 C.2   210  SER210      0.2644
    155  O         -6.7660  -18.1220   25.5050 O.2   210  SER210     -0.2714
    156  CB        -7.8560  -18.6760   28.4050 C.3   210  SER210      0.2130
    157  OG        -7.7120  -18.8640   29.8100 O.3   210  SER210     -0.2179
    158  N         -7.3630  -20.2930   25.6950 N.am  211  GLY211     -0.1939
    159  CA        -7.8020  -20.4450   24.3240 C.3   211  GLY211      0.2014
    160  C         -6.8100  -20.3530   23.1890 C.2   211  GLY211      0.2638
    161  O         -7.2240  -20.1830   22.0390 O.2   211  GLY211     -0.2714
    162  N         -5.5190  -20.4600   23.4770 N.am  212  ILE212     -0.1977
    163  CA        -4.5170  -20.3930   22.4230 C.3   212  ILE212      0.1596
    164  C         -4.2360  -21.8010   21.9060 C.2   212  ILE212      0.2287
    165  O         -3.9040  -22.7000   22.6850 O.2   212  ILE212     -0.2864
    166  CB        -3.2110  -19.7750   22.9370 C.3   212  ILE212      0.0276
    167  CG1       -3.4510  -18.3200   23.3590 C.3   212  ILE212      0.0022
    168  CG2       -2.1510  -19.8380   21.8540 C.3   212  ILE212      0.0022
    169  CD1       -2.2920  -17.7100   24.1210 C.3   212  ILE212      0.0001
    170  N          0.3470  -18.3770   28.1740 N.3   230  LEU230     -0.1231
    171  CA         0.0780  -19.5040   29.0540 C.3   230  LEU230      0.1693
    172  C         -0.8840  -20.4100   28.2770 C.2   230  LEU230      0.2592
    173  O         -1.9960  -20.0010   27.9110 O.2   230  LEU230     -0.2718
    174  CB        -0.5170  -19.0170   30.3850 C.3   230  LEU230      0.0284
    175  CG        -0.5510  -20.0720   31.5040 C.3   230  LEU230      0.0019
    176  CD1       -0.4780  -19.4040   32.8650 C.3   230  LEU230      0.0001
    177  CD2       -1.7890  -20.9140   31.3980 C.3   230  LEU230      0.0001
    178  N         -0.4430  -21.6400   28.0170 N.am  231  ILE231     -0.1966
    179  CA        -1.2150  -22.5870   27.2320 C.3   231  ILE231      0.1727
    180  C         -1.3920  -23.8860   27.9990 C.2   231  ILE231      0.2617
    181  O         -0.4160  -24.4630   28.4700 O.2   231  ILE231     -0.2715
    182  CB        -0.5090  -22.8520   25.8670 C.3   231  ILE231      0.0290
    183  CG1       -0.2260  -21.5200   25.1610 C.3   231  ILE231      0.0022
    184  CG2       -1.3880  -23.7120   24.9750 C.3   231  ILE231      0.0023
    185  CD1        0.6300  -21.6400   23.8990 C.3   231  ILE231      0.0001
    186  N         -2.6450  -24.3230   28.1230 N.am  232  GLY232     -0.1940
    187  CA        -2.9650  -25.5390   28.8350 C.3   232  GLY232      0.2014
    188  C         -3.6140  -26.6030   27.9560 C.2   232  GLY232      0.2640
    189  O         -2.9590  -27.5710   27.5630 O.2   232  GLY232     -0.2714
    190  N         -4.8920  -26.4260   27.6320 N.am  233  SER233     -0.1935
    191  CA        -5.6390  -27.4000   26.8350 C.3   233  SER233      0.2055
    192  C         -4.9890  -27.9330   25.5710 C.2   233  SER233      0.2643
    193  O         -4.9040  -29.1540   25.4180 O.2   233  SER233     -0.2714
    194  CB        -7.0410  -26.8820   26.4970 C.3   233  SER233      0.2130
    195  OG        -7.8140  -26.7510   27.6820 O.3   233  SER233     -0.2179
    196  N         -4.5190  -27.0660   24.6740 N.am  234  SER234     -0.1949
    197  CA        -3.9340  -27.5900   23.4450 C.3   234  SER234      0.1924
    198  C         -2.6630  -28.4170   23.7110 C.2   234  SER234      0.2314
    199  O         -2.4050  -29.3840   23.0000 O.2   234  SER234     -0.2863
    200  CB        -3.7140  -26.4850   22.3890 C.3   234  SER234      0.2116
    201  OG        -2.6980  -25.5980   22.7870 O.3   234  SER234     -0.2180
@<TRIPOS>BOND
     1   168   166    1
     2   164   163    1
     3   164   165    2
     4   161   160    2
     5   200   201    1
     6   200   197    1
     7   163   166    1
     8   163   162    1
     9   166   167    1
    10   199   198    2
    11   160   162   am
    12   160   159    1
    13   167   169    1
    14   197   198    1
    15   197   196    1
    16   185   183    1
    17   159   158    1
    18   196   192   am
    19   184   182    1
    20   183   182    1
    21   193   192    2
    22   155   154    2
    23   192   191    1
    24   158   154   am
    25   182   179    1
    26   154   153    1
    27   194   191    1
    28   194   195    1
    29   191   190    1
    30   179   180    1
    31   179   178    1
    32   189   188    2
    33   190   188   am
    34   153   152    1
    35   153   156    1
    36   125   124    1
    37   173   172    2
    38   188   187    1
    39   180   186   am
    40   180   181    2
    41   178   172   am
    42   186   187    1
    43   152   145   am
    44   170   171    1
    45   146   145    2
    46   172   171    1
    47    49    48    2
    48   156   157    1
    49   145   144    1
    50   126   124    1
    51   138   137    2
    52   143   144    1
    53   124   123    2
    54   171   174    1
    55   116   117    1
    56   144   147    1
    57    51    50    1
    58   137   136    1
    59    48    47    1
    60    50    47    1
    61   117   120    1
    62   117   118    1
    63   123   122    1
    64   120   121    1
    65   110   111    2
    66   110   109    1
    67   121   122    1
    68    47    46    1
    69   174   175    1
    70   147   148    1
    71   109   108    1
    72   109   112    1
    73   118   119    2
    74    15    16    1
    75   136   139    1
    76   136   135    1
    77   114   113    2
    78   139   140    1
    79    18    17    2
    80    32    31    1
    81    38    37    1
    82    31    30    1
    83   177   175    1
    84   175   176    1
    85   148   149    1
    86    46    41   am
    87   113   112    1
    88   113   115   am
    89    16    17    1
    90    16    19    1
    91    19    20    1
    92   141   140    1
    93   140   142    1
    94    42    41    2
    95    27    26    2
    96    37    34    1
    97    41    40    1
    98    29    30    1
    99    29    28    1
   100    36    35    2
   101    22    21   ar
   102   149   150   ar
   103   149   151   ar
   104    20    21    1
   105    21    23   ar
   106    35    34    1
   107    35    39   am
   108    33    34    1
   109    26    25    1
   110    24    25    1
   111    40    39    1
   112    40    43    1
   113    28    25    1
   114    39    45    1
   115   127   128    1
   116    79    78    1
   117    43    44    1
   118    45    44    1
   119   128   129    1
   120   128   131    1
   121   107   105   ar
   122   129   130    2
   123    68    66   ar
   124    68    70   ar
   125   104   105    1
   126   104   103    1
   127   105   106   ar
   128   134   132    1
   129    78    77    1
   130    66    65   ar
   131    59    57    1
   132    70    69   ar
   133   132   131    1
   134   132   133    1
   135   101   100    1
   136   101   102    2
   137   100   103    1
   138   100    99    1
   139    77    76    1
   140    57    56    1
   141    57    58    1
   142     9    10   ar
   143     9     7   ar
   144    65    64    1
   145    65    67   ar
   146    12    10   ar
   147    12    14   ar
   148    63    62    2
   149    69    67   ar
   150    76    75    1
   151    97    96    1
   152    10     8   ar
   153     7     6   ar
   154    61    64    1
   155    61    62    1
   156    61    60    1
   157    56    53    1
   158    52    53    1
   159    14    13   ar
   160    75    72    1
   161    98    96    1
   162     8     6   ar
   163     8    11   ar
   164     6     5    1
   165    53    54    1
   166    96    95    1
   167    13    11   ar
   168    90    89   ar
   169    90    88   ar
   170     5     2    1
   171    95    92    1
   172    72    71    1
   173    72    73    1
   174    55    54    2
   175    89    87   ar
   176    88    86   ar
   177    74    73    2
   178    92    91    1
   179    92    93    1
   180     1     2    1
   181     2     3    1
   182    87    85   ar
   183     3     4    2
   184    93    94    2
   185    86    85   ar
   186    85    84    1
   187    80    81    1
   188    84    81    1
   189    81    82    1
   190    82    83    2
