@<TRIPOS>MOLECULE
tmp/1lbmA00.pdb
 153 143 0 0 0
SMALL
GASTEIGER

@<TRIPOS>ATOM
      1  N         10.4850   28.4790   55.9910 N.3     7  CYS7       -0.1235
      2  CA        10.8340   29.8450   56.3630 C.3     7  CYS7        0.1677
      3  C         12.3400   30.1030   56.4460 C.2     7  CYS7        0.2270
      4  O         13.1580   29.1830   56.4250 O.2     7  CYS7       -0.2867
      5  CB        10.1340   30.2330   57.6820 C.3     7  CYS7        0.0956
      6  SG         9.4080   31.8940   57.6840 S.3     7  CYS7       -0.0801
      7  N         12.8320   36.3980   56.6230 N.3    29  VAL29      -0.1245
      8  CA        12.8310   37.0000   57.9510 C.3    29  VAL29       0.1561
      9  C         13.4290   38.4240   57.8780 C.2    29  VAL29       0.2260
     10  O         14.6080   38.5940   57.6310 O.2    29  VAL29      -0.2867
     11  CB        13.6360   36.1480   58.9580 C.3    29  VAL29       0.0252
     12  CG1       13.7090   36.8390   60.2960 C.3    29  VAL29       0.0019
     13  CG2       13.0240   34.7600   59.1440 C.3    29  VAL29       0.0019
     14  N         13.6600   40.5010   60.3230 N.3    31  TYR31      -0.1241
     15  CA        13.9940   40.8790   61.6670 C.3    31  TYR31       0.1605
     16  C         15.5180   40.9890   61.7400 C.2    31  TYR31       0.2264
     17  O         16.2000   39.9930   61.6710 O.2    31  TYR31      -0.2867
     18  CB        13.4410   39.8250   62.6200 C.3    31  TYR31       0.0534
     19  CG        13.6880   40.1260   64.0630 C.ar   31  TYR31      -0.0201
     20  CD1       13.4410   41.3900   64.5640 C.ar   31  TYR31      -0.0009
     21  CD2       14.1730   39.1550   64.9250 C.ar   31  TYR31      -0.0009
     22  CE1       13.6700   41.6840   65.8790 C.ar   31  TYR31       0.0417
     23  CE2       14.3970   39.4350   66.2530 C.ar   31  TYR31       0.0417
     24  CZ        14.1470   40.7130   66.7200 C.ar   31  TYR31       0.1957
     25  OH        14.3640   41.0720   68.0210 O.3    31  TYR31      -0.2866
     26  N         17.8670   38.4210   63.4800 N.3    34  SER34      -0.1202
     27  CA        17.8690   36.9880   63.1730 C.3    34  SER34       0.2020
     28  C         19.0930   36.6380   62.3750 C.2    34  SER34       0.2619
     29  O         19.6170   37.4290   61.5990 O.2    34  SER34      -0.2717
     30  CB        16.6440   36.5590   62.3750 C.3    34  SER34       0.2103
     31  OG        16.7960   35.2230   61.9090 O.3    34  SER34      -0.2182
     32  N         19.5490   35.4280   62.5920 N.am   35  LYS35      -0.1965
     33  CA        20.6730   34.9190   61.8550 C.3    35  LYS35       0.1728
     34  C         20.1910   34.6180   60.4420 C.2    35  LYS35       0.2616
     35  O         20.9430   34.6680   59.4970 O.2    35  LYS35      -0.2715
     36  CB        21.2190   33.6730   62.5480 C.3    35  LYS35       0.0311
     37  CG        21.9650   33.9630   63.8570 C.3    35  LYS35       0.0038
     38  CD        22.7750   32.7360   64.3510 C.3    35  LYS35       0.0206
     39  CE        22.1910   32.0710   65.6220 C.3    35  LYS35       0.1093
     40  NZ        20.9200   31.3060   65.3760 N.3    35  LYS35      -0.1314
     41  N         18.9000   34.3700   60.3020 N.am   36  ARG36      -0.1977
     42  CA        18.3010   34.1320   59.0020 C.3    36  ARG36       0.1597
     43  C         17.8550   35.4480   58.3610 C.2    36  ARG36       0.2287
     44  O         17.1030   35.4490   57.4200 O.2    36  ARG36      -0.2864
     45  CB        17.1030   33.2100   59.1710 C.3    36  ARG36       0.0334
     46  CG        17.4430   31.7560   59.3800 C.3    36  ARG36       0.0492
     47  CD        16.3520   30.9660   60.0790 C.3    36  ARG36       0.2205
     48  NE        16.6220   30.7940   61.5040 N.pl3  36  ARG36      -0.0865
     49  CZ        17.3780   29.8310   62.0130 C.cat  36  ARG36       0.5346
     50  NH1       17.9600   28.9370   61.2180 N.pl3  36  ARG36       0.1354
     51  NH2       17.5660   29.7570   63.3180 N.pl3  36  ARG36       0.1354
     52  N          8.3680   37.9310   57.4670 N.3    59  VAL59      -0.1245
     53  CA         8.2790   37.9610   58.9180 C.3    59  VAL59       0.1561
     54  C          8.8280   39.2520   59.5020 C.2    59  VAL59       0.2260
     55  O          9.9560   39.6040   59.2790 O.2    59  VAL59      -0.2867
     56  CB         9.0720   36.8120   59.5100 C.3    59  VAL59       0.0252
     57  CG1        8.6970   36.6060   60.9340 C.3    59  VAL59       0.0019
     58  CG2        8.8240   35.5210   58.7060 C.3    59  VAL59       0.0019
     59  N          9.0380   41.6020   63.2380 N.3    61  VAL61      -0.1245
     60  CA         8.9100   41.5750   64.6950 C.3    61  VAL61       0.1561
     61  C          8.7780   42.9950   65.2200 C.2    61  VAL61       0.2260
     62  O          9.6970   43.7970   65.1470 O.2    61  VAL61      -0.2867
     63  CB        10.1190   40.8280   65.3470 C.3    61  VAL61       0.0252
     64  CG1        9.9790   40.7410   66.8410 C.3    61  VAL61       0.0019
     65  CG2       10.2370   39.4030   64.7900 C.3    61  VAL61       0.0019
     66  N          3.6760   38.0830   58.1280 N.3    81  GLN81      -0.1245
     67  CA         3.5860   37.3210   59.3700 C.3    81  GLN81       0.1566
     68  C          4.0640   38.1980   60.5210 C.2    81  GLN81       0.2260
     69  O          5.2370   38.5380   60.6240 O.2    81  GLN81      -0.2867
     70  CB         4.4410   36.0400   59.2780 C.3    81  GLN81       0.0367
     71  CG         4.4310   35.1440   60.5040 C.3    81  GLN81       0.0905
     72  CD         5.0210   33.7610   60.2150 C.2    81  GLN81       0.2608
     73  OE1        4.5120   33.0350   59.3660 O.2    81  GLN81      -0.2717
     74  NE2        6.1040   33.4060   60.9040 N.am   81  GLN81      -0.0878
     75  N          5.1020   38.5010   63.9190 N.3    83  HIS83      -0.1241
     76  CA         5.7220   37.5910   64.9310 C.3    83  HIS83       0.1621
     77  C          6.1760   38.1950   66.2630 C.2    83  HIS83       0.2264
     78  O          6.9390   37.5630   67.0090 O.2    83  HIS83      -0.2867
     79  CB         6.9650   36.8850   64.3250 C.3    83  HIS83       0.0745
     80  CG         6.9660   35.3900   64.4760 C.ar   83  HIS83       0.0817
     81  ND1        7.4000   34.7410   65.6150 N.ar   83  HIS83      -0.2268
     82  CD2        6.6060   34.4150   63.6090 C.ar   83  HIS83       0.1154
     83  CE1        7.2810   33.4320   65.4540 C.ar   83  HIS83       0.1986
     84  NE2        6.8210   33.2060   64.2360 N.ar   83  HIS83      -0.2212
     85  N         -0.4820   31.4620   63.4750 N.3   124  LEU124     -0.1245
     86  CA         0.6650   30.5500   63.4030 C.3   124  LEU124      0.1561
     87  C          1.0290   30.2790   64.8510 C.2   124  LEU124      0.2260
     88  O          1.4280   31.1870   65.5670 O.2   124  LEU124     -0.2867
     89  CB         1.8470   31.1730   62.6650 C.3   124  LEU124      0.0270
     90  CG         3.1010   30.3140   62.4680 C.3   124  LEU124      0.0019
     91  CD1        3.7460   30.6340   61.1310 C.3   124  LEU124      0.0001
     92  CD2        4.1120   30.5200   63.5810 C.3   124  LEU124      0.0001
     93  N          3.4790   29.0330   67.2960 N.3   126  ASP126     -0.1239
     94  CA         4.8800   28.7020   67.4740 C.3   126  ASP126      0.1674
     95  C          5.0610   27.9160   68.7620 C.2   126  ASP126      0.2266
     96  O          5.2060   28.4990   69.8140 O.2   126  ASP126     -0.2867
     97  CB         5.6400   30.0130   67.5750 C.3   126  ASP126      0.1410
     98  CG         7.0890   29.8860   67.2310 C.2   126  ASP126      0.3668
     99  OD1        7.6270   28.7810   67.2150 O.co2 126  ASP126     -0.2456
    100  OD2        7.7800   30.8710   66.9800 O.co2 126  ASP126     -0.2456
    101  N          3.5020   25.2050   64.0030 N.3   146  SER146     -0.1202
    102  CA         4.9320   25.4540   63.8670 C.3   146  SER146      0.2020
    103  C          5.7130   25.1980   65.1600 C.2   146  SER146      0.2619
    104  O          5.1300   25.0470   66.2170 O.2   146  SER146     -0.2717
    105  CB         5.1560   26.8790   63.4100 C.3   146  SER146      0.2103
    106  OG         6.5260   27.2330   63.4620 O.3   146  SER146     -0.2182
    107  N          7.0380   25.1450   65.0510 N.am  147  GLY147     -0.1942
    108  CA         7.8840   24.9240   66.2080 C.3   147  GLY147      0.2014
    109  C          8.4390   23.5140   66.3380 C.2   147  GLY147      0.2639
    110  O          7.7110   22.5690   66.5730 O.2   147  GLY147     -0.2714
    111  N          9.7350   23.3560   66.1620 N.am  148  GLY148     -0.1939
    112  CA        10.3600   22.0610   66.3030 C.3   148  GLY148      0.2014
    113  C         10.0060   20.9560   65.3400 C.2   148  GLY148      0.2638
    114  O         10.2780   19.8000   65.6320 O.2   148  GLY148     -0.2714
    115  N          9.4300   21.2960   64.1970 N.am  149  LEU149     -0.1977
    116  CA         8.9950   20.3080   63.2330 C.3   149  LEU149      0.1596
    117  C         10.1710   19.8890   62.3950 C.2   149  LEU149      0.2287
    118  O         11.0430   20.6930   62.1000 O.2   149  LEU149     -0.2864
    119  CB         7.8800   20.8700   62.3650 C.3   149  LEU149      0.0297
    120  CG         6.6070   21.2320   63.1320 C.3   149  LEU149      0.0022
    121  CD1        5.4430   21.4170   62.1620 C.3   149  LEU149      0.0001
    122  CD2        6.2570   20.1760   64.1590 C.3   149  LEU149      0.0001
    123  N          4.7010   24.8400   59.4340 N.3   167  ASP167     -0.1225
    124  CA         5.7940   25.7470   59.0950 C.3   167  ASP167      0.1805
    125  C          7.0900   25.2880   59.7130 C.2   167  ASP167      0.2598
    126  O          7.0690   24.7480   60.7970 O.2   167  ASP167     -0.2718
    127  CB         5.4260   27.1320   59.6050 C.3   167  ASP167      0.1424
    128  CG         6.6110   28.0320   59.7610 C.2   167  ASP167      0.3668
    129  OD1        6.7390   28.9470   58.9330 O.co2 167  ASP167     -0.2456
    130  OD2        7.4350   27.9370   60.7000 O.co2 167  ASP167     -0.2456
    131  N          8.2080   25.5000   59.0340 N.am  168  VAL168     -0.1966
    132  CA         9.4790   25.0500   59.5430 C.3   168  VAL168      0.1727
    133  C         10.6470   25.8300   58.9880 C.2   168  VAL168      0.2617
    134  O         10.6220   26.2820   57.8460 O.2   168  VAL168     -0.2715
    135  CB         9.7220   23.6070   59.1760 C.3   168  VAL168      0.0290
    136  CG1        9.7480   23.4160   57.6670 C.3   168  VAL168      0.0023
    137  CG2       11.0330   23.1190   59.7600 C.3   168  VAL168      0.0023
    138  N         11.7000   25.9740   59.7850 N.am  169  SER169     -0.1936
    139  CA        12.8730   26.6580   59.2940 C.3   169  SER169      0.2055
    140  C         14.1990   26.0530   59.7180 C.2   169  SER169      0.2644
    141  O         15.0430   25.8410   58.8660 O.2   169  SER169     -0.2714
    142  CB        12.8300   28.1260   59.6310 C.3   169  SER169      0.2130
    143  OG        13.0610   28.2740   60.9750 O.3   169  SER169     -0.2179
    144  N         14.4280   25.7870   60.9850 N.am  170  SER170     -0.1935
    145  CA        15.7110   25.1570   61.3340 C.3   170  SER170      0.2055
    146  C         15.6800   23.6480   61.2300 C.2   170  SER170      0.2643
    147  O         16.6820   23.0210   61.0470 O.2   170  SER170     -0.2714
    148  CB        16.1550   25.5340   62.7280 C.3   170  SER170      0.2130
    149  OG        15.2610   25.0050   63.6850 O.3   170  SER170     -0.2179
    150  N         14.5070   23.0650   61.3480 N.am  171  GLY171     -0.1954
    151  CA        14.3730   21.6300   61.2610 C.3   171  GLY171      0.1869
    152  C         14.7220   21.0290   59.9200 C.2   171  GLY171      0.2309
    153  O         14.7140   19.8180   59.8300 O.2   171  GLY171     -0.2863
@<TRIPOS>BOND
     1     1     2    1
     2     2     3    1
     3     2     5    1
     4     4     3    2
     5     7     8    1
     6    44    43    2
     7    52    53    1
     8    10     9    2
     9   136   135    1
    10     5     6    1
    11   134   133    2
    12     9     8    1
    13     8    11    1
    14    66    67    1
    15    43    42    1
    16    58    56    1
    17   141   140    2
    18    53    54    1
    19    53    56    1
    20   129   128   ar
    21    11    13    1
    22    11    12    1
    23   133   132    1
    24   133   138   am
    25    42    45    1
    26    42    41    1
    27   131   132    1
    28   131   125   am
    29   124   123    1
    30   124   127    1
    31   124   125    1
    32    45    46    1
    33   135   132    1
    34   135   137    1
    35    70    67    1
    36    70    71    1
    37    55    54    2
    38   139   142    1
    39   139   140    1
    40   139   138    1
    41    73    72    2
    42    67    68    1
    43    46    47    1
    44    35    34    2
    45    56    57    1
    46   127   128    1
    47   142   143    1
    48   125   126    2
    49   140   144   am
    50   128   130   ar
    51   153   152    2
    52   152   151    1
    53    47    48    1
    54    72    71    1
    55    72    74   am
    56    41    34   am
    57    14    15    1
    58    34    33    1
    59    68    69    2
    60   144   145    1
    61   147   146    2
    62    91    90    1
    63    50    49    1
    64   146   145    1
    65   146   150   am
    66   151   150    1
    67   145   148    1
    68    48    49    2
    69    29    28    2
    70    15    16    1
    71    15    18    1
    72    17    16    2
    73    33    36    1
    74    33    32    1
    75    31    30    1
    76    49    51    1
    77   118   117    2
    78   121   120    1
    79   119   120    1
    80   119   116    1
    81    30    27    1
    82    28    32   am
    83    28    27    1
    84   117   116    1
    85    90    89    1
    86    90    92    1
    87    36    37    1
    88    18    19    1
    89    89    86    1
    90   148   149    1
    91   120   122    1
    92    27    26    1
    93   116   115    1
    94    59    60    1
    95    86    85    1
    96    86    87    1
    97   105   106    1
    98   105   102    1
    99    82    84   ar
   100    82    80   ar
   101    37    38    1
   102   102   101    1
   103   102   103    1
   104    75    76    1
   105    19    20   ar
   106    19    21   ar
   107   115   113   am
   108    84    83   ar
   109    79    80    1
   110    79    76    1
   111    38    39    1
   112    80    81   ar
   113    20    22   ar
   114    60    61    1
   115    60    63    1
   116    65    63    1
   117    87    88    2
   118    21    23   ar
   119    76    77    1
   120   107   103   am
   121   107   108    1
   122    62    61    2
   123   103   104    2
   124   113   114    2
   125   113   112    1
   126    63    64    1
   127    40    39    1
   128    83    81   ar
   129    22    24   ar
   130   111   112    1
   131   111   109   am
   132   108   109    1
   133    23    24   ar
   134    77    78    2
   135   109   110    2
   136    24    25    1
   137   100    98   ar
   138    99    98   ar
   139    98    97    1
   140    93    94    1
   141    94    97    1
   142    94    95    1
   143    95    96    2
