@<TRIPOS>MOLECULE
tmp/1lbsC01.pdb
 111 104 0 0 0
SMALL
GASTEIGER

@<TRIPOS>ATOM
      1  N         99.7870    2.0040   19.6510 N.3    40  THR40      -0.1218
      2  CA       100.4200    3.3110   19.5420 C.3    40  THR40       0.1862
      3  C        101.6130    3.4410   20.4410 C.2    40  THR40       0.2287
      4  O        101.5130    3.0810   21.6000 O.2    40  THR40      -0.2866
      5  CB        99.4460    4.4110   19.9410 C.3    40  THR40       0.1770
      6  OG1       98.2140    4.1890   19.2600 O.3    40  THR40      -0.2211
      7  CG2       99.9760    5.7730   19.5800 C.3    40  THR40       0.0375
      8  N         96.8870   -5.5290   18.9800 N.3   104  TRP104     -0.1227
      9  CA        96.7480   -4.8910   20.2870 C.3   104  TRP104      0.1737
     10  C         96.5080   -3.4210   20.1010 C.2   104  TRP104      0.2596
     11  O         97.2860   -2.7310   19.4310 O.2   104  TRP104     -0.2718
     12  CB        97.9740   -5.0670   21.1800 C.3   104  TRP104      0.0564
     13  CG        97.7780   -4.3620   22.5250 C.ar  104  TRP104      0.0003
     14  CD1       96.6680   -4.4380   23.3560 C.ar  104  TRP104      0.0946
     15  CD2       98.6840   -3.4500   23.1680 C.ar  104  TRP104      0.0152
     16  NE1       96.8510   -3.6450   24.4610 N.ar  104  TRP104     -0.2442
     17  CE2       98.0690   -3.0190   24.3680 C.ar  104  TRP104      0.0810
     18  CE3       99.9450   -2.9420   22.8380 C.ar  104  TRP104      0.0012
     19  CZ2       98.6740   -2.1000   25.2340 C.ar  104  TRP104      0.0191
     20  CZ3      100.5500   -2.0250   23.6920 C.ar  104  TRP104      0.0001
     21  CH2       99.9150   -1.6150   24.8720 C.ar  104  TRP104      0.0015
     22  N         95.4660   -2.9260   20.7460 N.am  105  SER105     -0.1938
     23  CA        95.1250   -1.5220   20.6610 C.3   105  SER105      0.2055
     24  C         94.9320   -0.9270   19.2220 C.2   105  SER105      0.2642
     25  O         93.9630   -1.2480   18.5660 O.2   105  SER105     -0.2714
     26  CB        96.1210   -0.7450   21.5060 C.3   105  SER105      0.2130
     27  OG        95.5390    0.5200   21.8150 O.3   105  SER105     -0.2179
     28  N         95.8150   -0.0710   18.7290 N.am  106  GLN106     -0.1976
     29  CA        95.6100    0.5460   17.4100 C.3   106  GLN106      0.1601
     30  C         95.7150   -0.4710   16.3210 C.2   106  GLN106      0.2287
     31  O         95.1390   -0.2860   15.2550 O.2   106  GLN106     -0.2864
     32  CB        96.6230    1.6650   17.1340 C.3   106  GLN106      0.0394
     33  CG        96.3260    2.4750   15.8560 C.3   106  GLN106      0.0908
     34  CD        97.5410    3.1990   15.3090 C.2   106  GLN106      0.2608
     35  OE1       97.6880    3.3720   14.0870 O.2   106  GLN106     -0.2717
     36  NE2       98.4510    3.5870   16.2170 N.am  106  GLN106     -0.0878
     37  N         90.2470   -0.3650   19.2870 N.3   134  ASP134     -0.1239
     38  CA        89.4840    0.8420   19.4050 C.3   134  ASP134      0.1674
     39  C         88.9180    1.2130   18.0170 C.2   134  ASP134      0.2266
     40  O         89.3950    2.1630   17.3860 O.2   134  ASP134     -0.2867
     41  CB        90.4080    1.9320   19.9890 C.3   134  ASP134      0.1410
     42  CG        91.6650    2.2290   19.1220 C.2   134  ASP134      0.3668
     43  OD1       92.3570    1.3310   18.6010 O.co2 134  ASP134     -0.2456
     44  OD2       91.9800    3.4180   18.9830 O.co2 134  ASP134     -0.2456
     45  N         88.7190    6.5960   20.8270 N.3   138  THR138     -0.1218
     46  CA        88.5600    6.7650   22.2700 C.3   138  THR138      0.1862
     47  C         88.1190    8.1660   22.7320 C.2   138  THR138      0.2287
     48  O         88.6610    9.2210   22.3240 O.2   138  THR138     -0.2866
     49  CB        89.8250    6.2770   23.0900 C.3   138  THR138      0.1770
     50  OG1       89.4680    6.1430   24.4720 O.3   138  THR138     -0.2211
     51  CG2       91.0220    7.2310   22.9830 C.3   138  THR138      0.0375
     52  N         92.6040    8.4090   16.2640 N.3   157  GLN157     -0.1245
     53  CA        91.9740    7.4970   17.1750 C.3   157  GLN157      0.1566
     54  C         91.0410    8.1450   18.1610 C.2   157  GLN157      0.2260
     55  O         90.5740    7.4860   19.1040 O.2   157  GLN157     -0.2867
     56  CB        93.0110    6.6500   17.8690 C.3   157  GLN157      0.0367
     57  CG        93.5140    5.5090   17.0110 C.3   157  GLN157      0.0905
     58  CD        94.5720    4.6690   17.7130 C.2   157  GLN157      0.2608
     59  OE1       94.2860    3.5360   18.1680 O.2   157  GLN157     -0.2717
     60  NE2       95.7880    5.2060   17.8170 N.am  157  GLN157     -0.0878
     61  N         92.4650    3.2610   28.7540 N.3   189  ILE189     -0.1231
     62  CA        92.9010    3.9010   27.5350 C.3   189  ILE189      0.1692
     63  C         91.8060    4.1480   26.4680 C.2   189  ILE189      0.2591
     64  O         91.7030    5.2220   25.8630 O.2   189  ILE189     -0.2718
     65  CB        93.9970    3.0550   26.9060 C.3   189  ILE189      0.0266
     66  CG1       95.1070    2.7650   27.9100 C.3   189  ILE189      0.0019
     67  CG2       94.4820    3.7070   25.6300 C.3   189  ILE189      0.0020
     68  CD1       96.1780    3.7700   27.9400 C.3   189  ILE189      0.0001
     69  N         91.0140    3.1210   26.2480 N.am  190  VAL190     -0.1980
     70  CA        89.9580    3.1420   25.2820 C.3   190  VAL190      0.1595
     71  C         88.6270    3.1340   26.0230 C.2   190  VAL190      0.2287
     72  O         88.3820    2.3100   26.9420 O.2   190  VAL190     -0.2864
     73  CB        90.0780    1.8950   24.3090 C.3   190  VAL190      0.0276
     74  CG1       88.9300    1.8810   23.2870 C.3   190  VAL190      0.0022
     75  CG2       91.4290    1.8920   23.6190 C.3   190  VAL190      0.0022
     76  N         94.2410   -1.9820   30.2870 N.3   224  HIS224     -0.1241
     77  CA        94.5650   -1.9680   28.8730 C.3   224  HIS224      0.1621
     78  C         95.6310   -2.9830   28.5000 C.2   224  HIS224      0.2264
     79  O         95.4050   -3.8210   27.6020 O.2   224  HIS224     -0.2867
     80  CB        94.9800   -0.5720   28.3770 C.3   224  HIS224      0.0745
     81  CG        94.9870   -0.4480   26.8800 C.ar  224  HIS224      0.0817
     82  ND1       93.8340   -0.5480   26.1140 N.ar  224  HIS224     -0.2268
     83  CD2       96.0130   -0.2910   25.9890 C.ar  224  HIS224      0.1154
     84  CE1       94.1570   -0.4620   24.8330 C.ar  224  HIS224      0.1986
     85  NE2       95.4570   -0.3060   24.7300 N.ar  224  HIS224     -0.2212
     86  N        102.9090   -0.2630   29.2030 N.3   278  LEU278     -0.1245
     87  CA       102.6770    1.1010   28.7680 C.3   278  LEU278      0.1561
     88  C        103.8420    2.1120   28.9200 C.2   278  LEU278      0.2260
     89  O        103.7640    3.2160   28.3960 O.2   278  LEU278     -0.2867
     90  CB       101.3940    1.6410   29.3890 C.3   278  LEU278      0.0270
     91  CG       100.1330    1.3230   28.5860 C.3   278  LEU278      0.0019
     92  CD1       99.9930   -0.1470   28.3580 C.3   278  LEU278      0.0001
     93  CD2       98.9270    1.8170   29.3420 C.3   278  LEU278      0.0001
     94  N        105.5690    2.9160   25.6650 N.3   281  ALA281     -0.1231
     95  CA       104.5070    3.5750   24.8990 C.3   281  ALA281      0.1694
     96  C        104.3630    5.0540   25.2320 C.2   281  ALA281      0.2591
     97  O        104.4340    5.9140   24.3520 O.2   281  ALA281     -0.2718
     98  CB       103.1730    2.8710   25.1450 C.3   281  ALA281      0.0304
     99  N        104.1200    5.3250   26.5120 N.am  282  ALA282     -0.1980
    100  CA       103.9200    6.6650   27.0440 C.3   282  ALA282      0.1597
    101  C        105.1100    7.5410   26.7840 C.2   282  ALA282      0.2287
    102  O        104.9450    8.7150   26.5060 O.2   282  ALA282     -0.2864
    103  CB       103.6330    6.5970   28.5230 C.3   282  ALA282      0.0319
    104  N        105.1640    8.6350   22.9880 N.3   285  ILE285     -0.1245
    105  CA       104.1280    9.5980   22.7230 C.3   285  ILE285      0.1561
    106  C        104.5710   11.0150   23.1340 C.2   285  ILE285      0.2260
    107  O        104.4300   11.9690   22.3600 O.2   285  ILE285     -0.2867
    108  CB       102.8460    9.1640   23.4190 C.3   285  ILE285      0.0252
    109  CG1      102.3460    7.8800   22.7660 C.3   285  ILE285      0.0019
    110  CG2      101.8350   10.2790   23.4390 C.3   285  ILE285      0.0019
    111  CD1      100.9610    7.4540   23.1950 C.3   285  ILE285      0.0001
@<TRIPOS>BOND
     1    35    34    2
     2    31    30    2
     3    34    33    1
     4    34    36   am
     5    33    32    1
     6    52    53    1
     7    30    29    1
     8    57    58    1
     9    57    56    1
    10    32    29    1
    11    53    56    1
    12    53    54    1
    13    40    39    2
    14    29    28    1
    15    58    60   am
    16    58    59    2
    17    39    38    1
    18    54    55    2
    19    25    24    2
    20    43    42   ar
    21    28    24   am
    22     8     9    1
    23    44    42   ar
    24    42    41    1
    25    24    23    1
    26     6     5    1
    27    37    38    1
    28    38    41    1
    29    11    10    2
    30     2     1    1
    31     2     5    1
    32     2     3    1
    33     7     5    1
    34    10     9    1
    35    10    22   am
    36     9    12    1
    37     3     4    2
    38    23    22    1
    39    23    26    1
    40    45    46    1
    41    12    13    1
    42    26    27    1
    43    46    47    1
    44    46    49    1
    45    48    47    2
    46   107   106    2
    47    13    15   ar
    48    13    14   ar
    49   105   104    1
    50   105   106    1
    51   105   108    1
    52   109   111    1
    53   109   108    1
    54    18    15   ar
    55    18    20   ar
    56    51    49    1
    57    49    50    1
    58    15    17   ar
    59    74    73    1
    60    14    16   ar
    61   108   110    1
    62    75    73    1
    63    20    21   ar
    64    73    70    1
    65    97    96    2
    66    17    16   ar
    67    17    19   ar
    68    85    84   ar
    69    85    83   ar
    70    84    82   ar
    71    21    19   ar
    72    95    98    1
    73    95    96    1
    74    95    94    1
    75    96    99   am
    76    70    71    1
    77    70    69    1
    78    67    65    1
    79    64    63    2
    80    83    81   ar
    81    71    72    2
    82    82    81   ar
    83    69    63   am
    84    63    62    1
    85   102   101    2
    86    99   100    1
    87   101   100    1
    88    81    80    1
    89    65    62    1
    90    65    66    1
    91   100   103    1
    92    62    61    1
    93    79    78    2
    94    66    68    1
    95    92    91    1
    96    80    77    1
    97    89    88    2
    98    78    77    1
    99    91    93    1
   100    91    90    1
   101    87    88    1
   102    87    86    1
   103    87    90    1
   104    77    76    1
