@<TRIPOS>MOLECULE
tmp/1lbtA01.pdb
 175 163 0 0 0
SMALL
GASTEIGER

@<TRIPOS>ATOM
      1  N         -1.7460   28.7530   17.9870 N.3    39  GLY39      -0.1210
      2  CA        -2.5240   28.3010   19.1270 C.3    39  GLY39       0.1956
      3  C         -3.6130   29.2990   19.4680 C.2    39  GLY39       0.2612
      4  O         -3.7100   30.3480   18.8330 O.2    39  GLY39      -0.2717
      5  N         -4.4270   28.9850   20.4710 N.am   40  THR40      -0.1952
      6  CA        -5.5250   29.8570   20.8840 C.3    40  THR40       0.1897
      7  C         -5.0430   31.2140   21.4200 C.2    40  THR40       0.2313
      8  O         -4.0740   31.2950   22.1740 O.2    40  THR40      -0.2863
      9  CB        -6.3830   29.1750   21.9640 C.3    40  THR40       0.1794
     10  OG1       -6.5970   27.8070   21.6110 O.3    40  THR40      -0.2208
     11  CG2       -7.7330   29.8590   22.0820 C.3    40  THR40       0.0378
     12  N          0.7130   24.3010   16.8880 N.3   104  TRP104     -0.1227
     13  CA         0.8790   24.5200   18.3150 C.3   104  TRP104      0.1737
     14  C         -0.5030   24.5580   18.9700 C.2   104  TRP104      0.2596
     15  O         -1.3880   25.3250   18.5650 O.2   104  TRP104     -0.2718
     16  CB         1.6280   25.8180   18.6180 C.3   104  TRP104      0.0564
     17  CG         1.7790   26.0240   20.1000 C.ar  104  TRP104      0.0003
     18  CD1        2.0870   25.0670   21.0330 C.ar  104  TRP104      0.0946
     19  CD2        1.5710   27.2390   20.8290 C.ar  104  TRP104      0.0152
     20  NE1        2.0720   25.6110   22.2940 N.ar  104  TRP104     -0.2442
     21  CE2        1.7600   26.9430   22.2010 C.ar  104  TRP104      0.0810
     22  CE3        1.2350   28.5490   20.4600 C.ar  104  TRP104      0.0012
     23  CZ2        1.6330   27.9060   23.2020 C.ar  104  TRP104      0.0191
     24  CZ3        1.1050   29.5150   21.4680 C.ar  104  TRP104      0.0001
     25  CH2        1.3020   29.1810   22.8190 C.ar  104  TRP104      0.0015
     26  N         -0.6820   23.7070   19.9710 N.am  105  SER105     -0.1938
     27  CA        -1.9310   23.6100   20.6980 C.3   105  SER105      0.2055
     28  C         -3.1760   23.4220   19.8110 C.2   105  SER105      0.2642
     29  O         -3.2710   22.4300   19.0920 O.2   105  SER105     -0.2714
     30  CB        -2.0750   24.8070   21.6130 C.3   105  SER105      0.2130
     31  OG        -3.0460   24.5240   22.5910 O.3   105  SER105     -0.2179
     32  N         -4.1270   24.3590   19.8590 N.am  106  GLN106     -0.1976
     33  CA        -5.3480   24.2470   19.0550 C.3   106  GLN106      0.1601
     34  C         -5.0940   24.0070   17.5800 C.2   106  GLN106      0.2287
     35  O         -5.9080   23.3680   16.9100 O.2   106  GLN106     -0.2864
     36  CB        -6.2440   25.4790   19.1970 C.3   106  GLN106      0.0394
     37  CG        -7.5730   25.3180   18.4410 C.3   106  GLN106      0.0908
     38  CD        -8.3700   26.5990   18.3010 C.2   106  GLN106      0.2608
     39  OE1       -9.3570   26.6320   17.5690 O.2   106  GLN106     -0.2717
     40  NE2       -7.9520   27.6580   18.9900 N.am  106  GLN106     -0.0878
     41  N         -4.2170   19.4520   21.5450 N.3   134  ASP134     -0.1239
     42  CA        -5.2550   18.9910   22.4510 C.3   134  ASP134      0.1674
     43  C         -6.4060   18.3200   21.6990 C.2   134  ASP134      0.2266
     44  O         -7.5210   18.8470   21.6340 O.2   134  ASP134     -0.2867
     45  CB        -5.7470   20.1370   23.3480 C.3   134  ASP134      0.1410
     46  CG        -6.2480   21.3410   22.5640 C.2   134  ASP134      0.3668
     47  OD1       -5.9390   21.4640   21.3630 O.co2 134  ASP134     -0.2456
     48  OD2       -6.9650   22.1740   23.1530 O.co2 134  ASP134     -0.2456
     49  N         -9.1900   19.9620   26.9070 N.3   138  THR138     -0.1218
     50  CA        -8.5440   20.0790   28.2040 C.3   138  THR138      0.1862
     51  C         -9.6160   20.1930   29.2850 C.2   138  THR138      0.2287
     52  O        -10.7110   20.6920   29.0340 O.2   138  THR138     -0.2866
     53  CB        -7.5910   21.2940   28.2770 C.3   138  THR138      0.1770
     54  OG1       -7.0410   21.3850   29.6010 O.3   138  THR138     -0.2211
     55  CG2       -8.3250   22.5840   27.9250 C.3   138  THR138      0.0375
     56  N         -9.1220   21.7780   32.0890 N.3   140  LEU140     -0.1231
     57  CA        -8.9290   23.0820   32.7050 C.3   140  LEU140      0.1693
     58  C         -9.8760   24.1750   32.2340 C.2   140  LEU140      0.2591
     59  O        -10.0730   25.1620   32.9380 O.2   140  LEU140     -0.2718
     60  CB        -7.4780   23.5340   32.5360 C.3   140  LEU140      0.0284
     61  CG        -6.4660   22.5420   33.1170 C.3   140  LEU140      0.0019
     62  CD1       -5.0530   23.0960   33.0280 C.3   140  LEU140      0.0001
     63  CD2       -6.8290   22.2310   34.5600 C.3   140  LEU140      0.0001
     64  N        -10.4490   24.0100   31.0460 N.am  141  ALA141     -0.1980
     65  CA       -11.3910   24.9920   30.5040 C.3   141  ALA141      0.1597
     66  C        -12.7740   24.8390   31.1440 C.2   141  ALA141      0.2287
     67  O        -13.5870   25.7670   31.1170 O.2   141  ALA141     -0.2864
     68  CB       -11.4920   24.8490   28.9830 C.3   141  ALA141      0.0319
     69  N        -14.1720   27.7360   33.2970 N.3   144  LEU144     -0.1245
     70  CA       -14.4770   28.9260   32.5090 C.3   144  LEU144      0.1561
     71  C        -15.8170   28.7740   31.7980 C.2   144  LEU144      0.2260
     72  O        -16.5320   29.7530   31.6010 O.2   144  LEU144     -0.2867
     73  CB       -13.3930   29.1920   31.4640 C.3   144  LEU144      0.0270
     74  CG       -11.9050   29.1310   31.8060 C.3   144  LEU144      0.0019
     75  CD1      -11.1060   29.7700   30.6810 C.3   144  LEU144      0.0001
     76  CD2      -11.6290   29.8540   33.0870 C.3   144  LEU144      0.0001
     77  N        -17.5690   32.5590   30.7210 N.3   149  VAL149     -0.1245
     78  CA       -16.5120   33.4840   30.3080 C.3   149  VAL149      0.1561
     79  C        -15.5960   32.8440   29.2560 C.2   149  VAL149      0.2260
     80  O        -14.4670   33.2890   29.0610 O.2   149  VAL149     -0.2867
     81  CB       -15.6440   33.9790   31.5190 C.3   149  VAL149      0.0252
     82  CG1      -16.4960   34.7810   32.4910 C.3   149  VAL149      0.0019
     83  CG2      -14.9780   32.8120   32.2440 C.3   149  VAL149      0.0019
     84  N        -12.8180   27.9090   23.1580 N.3   154  VAL154     -0.1245
     85  CA       -12.4990   27.3950   24.4900 C.3   154  VAL154      0.1561
     86  C        -13.5160   26.3280   24.8850 C.2   154  VAL154      0.2260
     87  O        -13.1490   25.3110   25.4810 O.2   154  VAL154     -0.2867
     88  CB       -12.4290   28.5120   25.5380 C.3   154  VAL154      0.0252
     89  CG1      -12.1630   27.9350   26.9170 C.3   154  VAL154      0.0019
     90  CG2      -11.3230   29.4800   25.1610 C.3   154  VAL154      0.0019
     91  N        -12.7240   23.3240   22.9240 N.3   157  GLN157     -0.1245
     92  CA       -11.5070   22.6840   23.3860 C.3   157  GLN157      0.1566
     93  C        -11.6870   22.1390   24.7910 C.2   157  GLN157      0.2260
     94  O        -10.7140   21.8390   25.4760 O.2   157  GLN157     -0.2867
     95  CB       -10.3370   23.6500   23.3200 C.3   157  GLN157      0.0367
     96  CG        -9.8870   23.9100   21.9070 C.3   157  GLN157      0.0905
     97  CD        -8.7220   24.8410   21.8570 C.2   157  GLN157      0.2608
     98  OE1       -7.5750   24.4160   21.9080 O.2   157  GLN157     -0.2717
     99  NE2       -9.0020   26.1280   21.7740 N.am  157  GLN157     -0.0878
    100  N          0.4110   23.2650   31.9170 N.3   188  GLU188     -0.1231
    101  CA        -0.5340   23.9920   32.7700 C.3   188  GLU188      0.1699
    102  C         -1.8210   24.4200   32.0830 C.2   188  GLU188      0.2592
    103  O         -2.7320   24.9300   32.7280 O.2   188  GLU188     -0.2718
    104  CB         0.1410   25.2170   33.4040 C.3   188  GLU188      0.0402
    105  CG         0.2220   26.4470   32.5160 C.3   188  GLU188      0.1161
    106  CD         1.4470   26.4820   31.6390 C.2   188  GLU188      0.3649
    107  OE1        1.6750   25.5220   30.8820 O.co2 188  GLU188     -0.2457
    108  OE2        2.1830   27.4840   31.6970 O.co2 188  GLU188     -0.2457
    109  N         -1.8760   24.2410   30.7700 N.am  189  ILE189     -0.1966
    110  CA        -3.0520   24.6160   29.9960 C.3   189  ILE189      0.1727
    111  C         -3.8420   23.3900   29.5590 C.2   189  ILE189      0.2616
    112  O         -5.0550   23.3470   29.7230 O.2   189  ILE189     -0.2715
    113  CB        -2.6540   25.4260   28.7390 C.3   189  ILE189      0.0290
    114  CG1       -1.8970   26.6990   29.1410 C.3   189  ILE189      0.0022
    115  CG2       -3.8870   25.7330   27.8900 C.3   189  ILE189      0.0023
    116  CD1       -2.6900   27.6410   29.9940 C.3   189  ILE189      0.0001
    117  N         -3.1430   22.4000   29.0020 N.am  190  VAL190     -0.1977
    118  CA        -3.7670   21.1630   28.5170 C.3   190  VAL190      0.1596
    119  C         -3.5370   19.9640   29.4480 C.2   190  VAL190      0.2287
    120  O         -2.3980   19.5770   29.7060 O.2   190  VAL190     -0.2864
    121  CB        -3.2510   20.7890   27.0920 C.3   190  VAL190      0.0276
    122  CG1       -3.8810   19.4880   26.6270 C.3   190  VAL190      0.0022
    123  CG2       -3.5630   21.8960   26.0960 C.3   190  VAL190      0.0022
    124  N          3.2640   24.6420   28.5770 N.3   224  HIS224     -0.1241
    125  CA         2.5530   24.6990   27.3100 C.3   224  HIS224      0.1621
    126  C          3.3440   25.3990   26.1970 C.2   224  HIS224      0.2264
    127  O          3.2490   25.0160   25.0280 O.2   224  HIS224     -0.2867
    128  CB         1.2170   25.4030   27.5150 C.3   224  HIS224      0.0745
    129  CG         0.2530   25.2130   26.3900 C.ar  224  HIS224      0.0817
    130  ND1       -0.1320   23.9690   25.9420 N.ar  224  HIS224     -0.2268
    131  CD2       -0.4300   26.1090   25.6400 C.ar  224  HIS224      0.1154
    132  CE1       -1.0120   24.1050   24.9690 C.ar  224  HIS224      0.1986
    133  NE2       -1.2120   25.3940   24.7670 N.ar  224  HIS224     -0.2212
    134  N          3.2340   33.0070   26.2930 N.3   278  LEU278     -0.1245
    135  CA         1.8860   32.9420   26.8510 C.3   278  LEU278      0.1561
    136  C          1.2150   34.2780   27.1690 C.2   278  LEU278      0.2260
    137  O         -0.0120   34.3690   27.1490 O.2   278  LEU278     -0.2867
    138  CB         1.8720   32.0380   28.0830 C.3   278  LEU278      0.0270
    139  CG         1.1990   30.6760   27.9090 C.3   278  LEU278      0.0019
    140  CD1        1.6550   30.0210   26.6310 C.3   278  LEU278      0.0001
    141  CD2        1.5030   29.7940   29.1050 C.3   278  LEU278      0.0001
    142  N         -1.2270   35.6320   24.5240 N.3   281  ALA281     -0.1231
    143  CA        -2.3150   34.6580   24.4400 C.3   281  ALA281      0.1694
    144  C         -3.3380   34.8170   25.5600 C.2   281  ALA281      0.2591
    145  O         -4.5400   34.8120   25.3130 O.2   281  ALA281     -0.2718
    146  CB        -1.7480   33.2510   24.4440 C.3   281  ALA281      0.0304
    147  N         -2.8490   34.9520   26.7890 N.am  282  ALA282     -0.1980
    148  CA        -3.7070   35.1270   27.9590 C.3   282  ALA282      0.1597
    149  C         -4.4540   36.4600   27.8710 C.2   282  ALA282      0.2287
    150  O         -5.6310   36.5510   28.2300 O.2   282  ALA282     -0.2864
    151  CB        -2.8690   35.0650   29.2420 C.3   282  ALA282      0.0319
    152  N         -7.3140   36.1330   25.3590 N.3   285  ILE285     -0.1231
    153  CA        -8.3790   35.3220   25.9280 C.3   285  ILE285      0.1692
    154  C         -9.2070   36.1710   26.9120 C.2   285  ILE285      0.2591
    155  O        -10.4270   36.2910   26.7730 O.2   285  ILE285     -0.2718
    156  CB        -7.7850   34.0520   26.5950 C.3   285  ILE285      0.0266
    157  CG1       -7.2590   33.1150   25.5070 C.3   285  ILE285      0.0019
    158  CG2       -8.8140   33.3340   27.4410 C.3   285  ILE285      0.0020
    159  CD1       -6.5450   31.8830   26.0260 C.3   285  ILE285      0.0001
    160  N         -8.5230   36.8440   27.8320 N.am  286  VAL286     -0.1980
    161  CA        -9.1760   37.6910   28.8250 C.3   286  VAL286      0.1595
    162  C        -10.0440   38.7900   28.2080 C.2   286  VAL286      0.2287
    163  O        -11.1160   39.1010   28.7210 O.2   286  VAL286     -0.2864
    164  CB        -8.1240   38.3340   29.7460 C.3   286  VAL286      0.0276
    165  CG1       -8.7590   39.3840   30.6320 C.3   286  VAL286      0.0022
    166  CG2       -7.4640   37.2610   30.5970 C.3   286  VAL286      0.0022
    167  N        -17.0160   36.0970   24.6990 N.3   290  LYS290     -0.1245
    168  CA       -17.4300   35.1280   25.7130 C.3   290  LYS290      0.1561
    169  C        -18.8820   34.7040   25.4960 C.2   290  LYS290      0.2260
    170  O        -19.6850   35.5000   25.0100 O.2   290  LYS290     -0.2867
    171  CB       -17.2700   35.7620   27.0940 C.3   290  LYS290      0.0271
    172  CG       -15.8920   36.3710   27.2840 C.3   290  LYS290      0.0035
    173  CD       -15.6780   36.9630   28.6560 C.3   290  LYS290      0.0206
    174  CE       -14.2140   37.3670   28.8430 C.3   290  LYS290      0.1093
    175  NZ       -13.8210   38.4710   27.9310 N.3   290  LYS290     -0.1314
@<TRIPOS>BOND
     1    12    13    1
     2    35    34    2
     3    39    38    2
     4    34    33    1
     5     1     2    1
     6    38    37    1
     7    38    40   am
     8    13    16    1
     9    13    14    1
    10    37    36    1
    11    15    14    2
    12    16    17    1
    13     4     3    2
    14    14    26   am
    15    33    36    1
    16    33    32    1
    17    29    28    2
    18     2     3    1
    19     3     5   am
    20    28    32   am
    21    28    27    1
    22    26    27    1
    23    17    19   ar
    24    17    18   ar
    25    22    19   ar
    26    22    24   ar
    27     5     6    1
    28    27    30    1
    29    19    21   ar
    30     6     7    1
    31     6     9    1
    32    18    20   ar
    33    47    46   ar
    34     7     8    2
    35    24    25   ar
    36    41    42    1
    37    10     9    1
    38    30    31    1
    39    44    43    2
    40    43    42    1
    41    99    97   am
    42    97    96    1
    43    97    98    2
    44    96    95    1
    45     9    11    1
    46    21    20   ar
    47    21    23   ar
    48    42    45    1
    49    46    48   ar
    50    46    45    1
    51    25    23   ar
    52    91    92    1
    53    84    85    1
    54    95    92    1
    55    92    93    1
    56   143   146    1
    57   143   142    1
    58   143   144    1
    59    85    86    1
    60    85    88    1
    61   167   168    1
    62   133   132   ar
    63   133   131   ar
    64    93    94    2
    65    86    87    2
    66   132   130   ar
    67   170   169    2
    68   127   126    2
    69    90    88    1
    70   145   144    2
    71   152   153    1
    72   169   168    1
    73   157   159    1
    74   157   156    1
    75    88    89    1
    76   144   147   am
    77   131   129   ar
    78   168   171    1
    79   153   156    1
    80   153   154    1
    81   130   129   ar
    82   123   121    1
    83   126   125    1
    84   134   135    1
    85   129   128    1
    86   156   158    1
    87   122   121    1
    88   140   139    1
    89   155   154    2
    90   147   148    1
    91   135   136    1
    92   135   138    1
    93    49    50    1
    94   154   160   am
    95   121   118    1
    96   171   172    1
    97   137   136    2
    98   172   173    1
    99   125   128    1
   100   125   124    1
   101   160   161    1
   102   149   148    1
   103   149   150    2
   104   115   113    1
   105   139   138    1
   106   139   141    1
   107    55    53    1
   108   175   174    1
   109   148   151    1
   110    50    53    1
   111    50    51    1
   112   162   163    2
   113   162   161    1
   114    53    54    1
   115   118   117    1
   116   118   119    1
   117   173   174    1
   118   113   114    1
   119   113   110    1
   120   161   164    1
   121    68    65    1
   122   117   111   am
   123    52    51    2
   124    80    79    2
   125   114   116    1
   126    79    78    1
   127   119   120    2
   128   111   112    2
   129   111   110    1
   130   164   166    1
   131   164   165    1
   132   110   109    1
   133    78    77    1
   134    78    81    1
   135    65    64    1
   136    65    66    1
   137    75    74    1
   138   109   102   am
   139   107   106   ar
   140    64    58   am
   141    67    66    2
   142    73    74    1
   143    73    70    1
   144    81    83    1
   145    81    82    1
   146    72    71    2
   147   106   108   ar
   148   106   105    1
   149    71    70    1
   150    74    76    1
   151   100   101    1
   152   102   103    2
   153   102   101    1
   154    56    57    1
   155    58    57    1
   156    58    59    2
   157    70    69    1
   158   105   104    1
   159    60    57    1
   160    60    61    1
   161   101   104    1
   162    62    61    1
   163    61    63    1
