@<TRIPOS>MOLECULE
tmp/1lbxA00.pdb
 136 131 0 0 0
SMALL
GASTEIGER

@<TRIPOS>ATOM
      1  N        -12.9750   15.6020   30.5050 N.3    40  THR40      -0.1218
      2  CA       -12.3460   15.4150   29.2000 C.3    40  THR40       0.1862
      3  C        -13.3990   15.4110   28.0940 C.2    40  THR40       0.2287
      4  O        -14.1100   14.4260   27.9090 O.2    40  THR40      -0.2866
      5  CB       -11.5260   14.1150   29.1370 C.3    40  THR40       0.1770
      6  OG1      -12.3470   13.0110   29.5440 O.3    40  THR40      -0.2211
      7  CG2      -10.3510   14.1770   30.1030 C.3    40  THR40       0.0375
      8  N        -16.3060    6.5740   29.9330 N.3    67  GLU67      -0.1245
      9  CA       -15.7920    7.9340   30.0750 C.3    67  GLU67       0.1567
     10  C        -16.8720    8.9970   29.9830 C.2    67  GLU67       0.2260
     11  O        -16.9830    9.8690   30.8440 O.2    67  GLU67      -0.2867
     12  CB       -14.7370    8.2000   28.9990 C.3    67  GLU67       0.0388
     13  CG       -13.8820    9.4320   29.2630 C.3    67  GLU67       0.1160
     14  CD       -12.5270    9.2830   28.5890 C.2    67  GLU67       0.3649
     15  OE1      -11.8770   10.2990   28.2820 O.co2  67  GLU67      -0.2457
     16  OE2      -12.1410    8.1160   28.3810 O.co2  67  GLU67      -0.2457
     17  N        -13.0890    2.1890   28.1820 N.3    82  ASP82      -0.1239
     18  CA       -12.5490    3.2940   27.4020 C.3    82  ASP82       0.1674
     19  C        -12.8200    2.9750   25.9290 C.2    82  ASP82       0.2266
     20  O        -12.1010    2.1720   25.3330 O.2    82  ASP82      -0.2867
     21  CB       -11.0640    3.5180   27.6480 C.3    82  ASP82       0.1410
     22  CG       -10.6270    4.9330   27.3370 C.2    82  ASP82       0.3668
     23  OD1      -11.3680    5.6530   26.6450 O.2    82  ASP82      -0.2456
     24  OD2       -9.5380    5.3490   27.7810 O.3    82  ASP82      -0.2456
     25  N        -12.5400    4.7690   23.3280 N.3    84  LEU84      -0.1231
     26  CA       -11.5190    5.2340   22.3960 C.3    84  LEU84       0.1693
     27  C        -10.2960    5.7850   23.1150 C.2    84  LEU84       0.2592
     28  O        -10.2290    6.9750   23.4320 O.2    84  LEU84      -0.2718
     29  CB       -12.1050    6.3130   21.4770 C.3    84  LEU84       0.0284
     30  CG       -11.0950    6.9440   20.5150 C.3    84  LEU84       0.0019
     31  CD1      -10.6730    5.9180   19.4740 C.3    84  LEU84       0.0001
     32  CD2      -11.6580    8.1970   19.8640 C.3    84  LEU84       0.0001
     33  N         -9.2890    4.9550   23.3900 N.am   85  ASP85      -0.1960
     34  CA        -8.0970    5.5110   24.0360 C.3    85  ASP85       0.1840
     35  C         -7.0420    5.9750   23.0360 C.2    85  ASP85       0.2623
     36  O         -6.4900    5.2140   22.2390 O.2    85  ASP85      -0.2715
     37  CB        -7.4910    4.4820   25.0000 C.3    85  ASP85       0.1450
     38  CG        -6.2630    5.0590   25.6900 C.2    85  ASP85       0.3671
     39  OD1       -5.1580    4.5650   25.3920 O.co2  85  ASP85      -0.2456
     40  OD2       -6.4310    5.9950   26.5010 O.co2  85  ASP85      -0.2456
     41  N         -6.7350    7.2680   23.0640 N.am   86  GLY86      -0.1940
     42  CA        -5.7660    7.8310   22.1340 C.3    86  GLY86       0.2014
     43  C         -6.4600    8.7140   21.1090 C.2    86  GLY86       0.2640
     44  O         -6.0550    8.8210   19.9560 O.2    86  GLY86      -0.2714
     45  N         -7.5270    9.3410   21.5710 N.am   87  THR87      -0.1936
     46  CA        -8.3520   10.2230   20.7630 C.3    87  THR87       0.2028
     47  C         -7.5180   11.2010   19.9490 C.2    87  THR87       0.2642
     48  O         -7.7280   11.2740   18.7330 O.2    87  THR87      -0.2714
     49  CB        -9.3430   10.9650   21.6790 C.3    87  THR87       0.1808
     50  OG1      -10.0130    9.9710   22.4740 O.3    87  THR87      -0.2208
     51  CG2      -10.4060   11.6840   20.8750 C.3    87  THR87       0.0379
     52  N         -6.6010   11.9100   20.5890 N.am   88  PHE88      -0.1973
     53  CA        -5.7220   12.8590   19.8990 C.3    88  PHE88       0.1639
     54  C         -5.0860   12.1970   18.6820 C.2    88  PHE88       0.2290
     55  O         -5.0120   12.7700   17.6010 O.2    88  PHE88      -0.2864
     56  CB        -4.6480   13.3650   20.8440 C.3    88  PHE88       0.0560
     57  CG        -3.7030   14.4500   20.3740 C.ar   88  PHE88      -0.0200
     58  CD1       -3.9960   15.7880   20.5740 C.ar   88  PHE88      -0.0042
     59  CD2       -2.5080   14.1360   19.7430 C.ar   88  PHE88      -0.0042
     60  CE1       -3.1290   16.7820   20.1640 C.ar   88  PHE88      -0.0003
     61  CE2       -1.6390   15.1220   19.3200 C.ar   88  PHE88      -0.0003
     62  CZ        -1.9410   16.4530   19.5300 C.ar   88  PHE88      -0.0000
     63  N          5.4350    8.6610   31.4630 N.3   155  TYR155     -0.1227
     64  CA         4.7140    9.9180   31.5550 C.3   155  TYR155      0.1736
     65  C          5.0420   10.5680   32.9020 C.2   155  TYR155      0.2595
     66  O          4.4480   10.1380   33.9040 O.2   155  TYR155     -0.2718
     67  CB         3.2050    9.7660   31.4990 C.3   155  TYR155      0.0548
     68  CG         2.5440    9.2440   30.2570 C.ar  155  TYR155     -0.0200
     69  CD1        2.5140    7.8900   29.9630 C.ar  155  TYR155     -0.0009
     70  CD2        1.9280   10.1150   29.3690 C.ar  155  TYR155     -0.0009
     71  CE1        1.8960    7.4290   28.8160 C.ar  155  TYR155      0.0417
     72  CE2        1.3080    9.6680   28.2200 C.ar  155  TYR155      0.0417
     73  CZ         1.2980    8.3190   27.9540 C.ar  155  TYR155      0.1957
     74  OH         0.6810    7.8750   26.8080 O.3   155  TYR155     -0.2866
     75  N          5.9150   11.5290   32.9740 N.am  156  TYR156     -0.1976
     76  CA         6.7720   12.1720   32.0120 C.3   156  TYR156      0.1639
     77  C          8.1930   12.2340   32.5740 C.2   156  TYR156      0.2290
     78  O          8.3490   12.1480   33.7990 O.2   156  TYR156     -0.2864
     79  CB         6.2680   13.5800   31.7170 C.3   156  TYR156      0.0560
     80  CG         5.0870   13.7200   30.7910 C.ar  156  TYR156     -0.0198
     81  CD1        4.2940   14.8640   30.8430 C.ar  156  TYR156     -0.0009
     82  CD2        4.7400   12.7500   29.8610 C.ar  156  TYR156     -0.0009
     83  CE1        3.2040   15.0330   30.0100 C.ar  156  TYR156      0.0417
     84  CE2        3.6530   12.9050   29.0200 C.ar  156  TYR156      0.0417
     85  CZ         2.8860   14.0490   29.0980 C.ar  156  TYR156      0.1957
     86  OH         1.8010   14.2180   28.2680 O.3   156  TYR156     -0.2866
     87  N          0.9880    8.1810   23.7900 N.3   170  GLY170     -0.1210
     88  CA        -0.3010    8.7670   24.0620 C.3   170  GLY170      0.1956
     89  C         -1.5060    7.8640   24.0980 C.2   170  GLY170      0.2613
     90  O         -2.5960    8.2910   23.6980 O.2   170  GLY170     -0.2717
     91  N         -1.3830    6.6270   24.5660 N.am  171  SER171     -0.1938
     92  CA        -2.5480    5.7610   24.7540 C.3   171  SER171      0.2055
     93  C         -2.1930    4.6760   25.7710 C.2   171  SER171      0.2642
     94  O         -1.7680    3.5770   25.4160 O.2   171  SER171     -0.2714
     95  CB        -3.0300    5.1960   23.4270 C.3   171  SER171      0.2130
     96  OG        -3.6960    3.9490   23.5500 O.3   171  SER171     -0.2179
     97  N         -2.3720    5.0240   27.0450 N.am  172  ALA172     -0.1977
     98  CA        -1.9040    4.2370   28.1810 C.3   172  ALA172      0.1597
     99  C         -2.4010    2.8050   28.1390 C.2   172  ALA172      0.2287
    100  O         -1.7360    1.8590   28.5670 O.2   172  ALA172     -0.2864
    101  CB        -2.3260    4.9020   29.4850 C.3   172  ALA172      0.0319
    102  N          3.1790   10.7570   37.1490 N.3   191  ARG191     -0.1245
    103  CA         2.7290   12.1510   37.1840 C.3   191  ARG191      0.1563
    104  C          2.0960   12.4780   38.5360 C.2   191  ARG191      0.2260
    105  O          1.2050   11.7610   38.9900 O.2   191  ARG191     -0.2867
    106  CB         1.7530   12.4160   36.0450 C.3   191  ARG191      0.0307
    107  CG         2.4230   12.6690   34.7020 C.3   191  ARG191      0.0489
    108  CD         1.3840   12.6920   33.5890 C.3   191  ARG191      0.2205
    109  NE         0.8210   11.3540   33.3630 N.pl3 191  ARG191     -0.0865
    110  CZ        -0.3980   11.2030   32.8580 C.cat 191  ARG191      0.5346
    111  NH1       -1.1000   12.2920   32.5660 N.pl3 191  ARG191      0.1354
    112  NH2       -0.8940    9.9980   32.6570 N.pl3 191  ARG191      0.1354
    113  N         -3.6050   11.7220   36.5620 N.3   195  MET195     -0.1230
    114  CA        -4.6130   11.8800   35.5220 C.3   195  MET195      0.1702
    115  C         -5.0180   10.5470   34.9120 C.2   195  MET195      0.2592
    116  O         -5.7320   10.5060   33.9090 O.2   195  MET195     -0.2718
    117  CB        -4.1250   12.7910   34.3950 C.3   195  MET195      0.0401
    118  CG        -3.8490   14.2260   34.7900 C.3   195  MET195      0.0596
    119  SD        -5.3110   15.2810   34.7060 S.3   195  MET195     -0.1393
    120  CE        -4.6910   16.7500   35.5290 C.3   195  MET195      0.0692
    121  N         -4.5810    9.4250   35.4850 N.am  196  LEU196     -0.1980
    122  CA        -5.0670    8.1750   34.9030 C.3   196  LEU196      0.1596
    123  C         -6.3750    7.7710   35.5810 C.2   196  LEU196      0.2287
    124  O         -6.4800    7.8230   36.8060 O.2   196  LEU196     -0.2864
    125  CB        -4.0420    7.0480   35.0000 C.3   196  LEU196      0.0297
    126  CG        -3.4560    6.6280   33.6450 C.3   196  LEU196      0.0022
    127  CD1       -2.9930    7.8700   32.8890 C.3   196  LEU196      0.0001
    128  CD2       -2.3300    5.6260   33.8070 C.3   196  LEU196      0.0001
    129  N         -8.9110    3.7910   31.4750 N.3   200  ASP200     -0.1239
    130  CA        -7.7200    3.8400   30.6280 C.3   200  ASP200      0.1674
    131  C         -6.7090    2.7950   31.0720 C.2   200  ASP200      0.2266
    132  O         -5.8660    2.3270   30.3030 O.2   200  ASP200     -0.2867
    133  CB        -7.1360    5.2550   30.6490 C.3   200  ASP200      0.1410
    134  CG        -8.0630    6.2860   30.0320 C.2   200  ASP200      0.3668
    135  OD1       -8.8830    5.9280   29.1570 O.3   200  ASP200     -0.2456
    136  OD2       -7.9900    7.4750   30.4070 O.2   200  ASP200     -0.2456
@<TRIPOS>BOND
     1    55    54    2
     2    54    53    1
     3    48    47    2
     4    61    62   ar
     5    61    59   ar
     6    31    30    1
     7    62    60   ar
     8    59    57   ar
     9    32    30    1
    10    53    52    1
    11    53    56    1
    12    47    52   am
    13    47    46    1
    14    44    43    2
    15    60    58   ar
    16    57    58   ar
    17    57    56    1
    18    30    29    1
    19    46    45    1
    20    46    49    1
    21    51    49    1
    22    43    45   am
    23    43    42    1
    24    29    26    1
    25    49    50    1
    26    42    41    1
    27    36    35    2
    28    26    27    1
    29    26    25    1
    30    35    41   am
    31    35    34    1
    32    27    33   am
    33    27    28    2
    34    33    34    1
    35    95    96    1
    36    95    92    1
    37    90    89    2
    38    87    88    1
    39    34    37    1
    40    88    89    1
    41    89    91   am
    42    91    92    1
    43    92    93    1
    44    37    38    1
    45    20    19    2
    46    39    38   ar
    47    94    93    2
    48    38    40   ar
    49    93    97   am
    50    19    18    1
    51    23    22    2
    52    74    73    1
    53    97    98    1
    54    22    21    1
    55    22    24    1
    56    18    21    1
    57    18    17    1
    58    24   135    1
    59     4     3    2
    60    73    72   ar
    61    73    71   ar
    62     3     2    1
    63    99    98    1
    64    99   100    2
    65    98   101    1
    66    72    70   ar
    67    86    85    1
    68    15    14   ar
    69    16    14   ar
    70    14    13    1
    71    71    69   ar
    72    12    13    1
    73    12     9    1
    74    84    85   ar
    75    84    82   ar
    76    85    83   ar
    77     5     2    1
    78     5     6    1
    79     5     7    1
    80   135   134    1
    81     2     1    1
    82    70    68   ar
    83    82    80   ar
    84     8     9    1
    85    69    68   ar
    86    10     9    1
    87    10    11    2
    88    83    81   ar
    89   134   136    2
    90   134   133    1
    91    68    67    1
    92   132   131    2
    93   130   133    1
    94   130   131    1
    95   130   129    1
    96    80    81   ar
    97    80    79    1
    98    63    64    1
    99    67    64    1
   100    64    65    1
   101    79    76    1
   102    76    77    1
   103    76    75    1
   104   111   110    1
   105    77    78    2
   106   112   110    1
   107   110   109    2
   108   127   126    1
   109    65    75   am
   110    65    66    2
   111   109   108    1
   112   108   107    1
   113   126   128    1
   114   126   125    1
   115   116   115    2
   116   117   118    1
   117   117   114    1
   118   107   106    1
   119   119   118    1
   120   119   120    1
   121   122   125    1
   122   122   121    1
   123   122   123    1
   124   115   121   am
   125   115   114    1
   126   114   113    1
   127   123   124    2
   128   106   103    1
   129   102   103    1
   130   103   104    1
   131   104   105    2
