@<TRIPOS>MOLECULE
tmp/1lbyA00.pdb
 123 116 0 0 0
SMALL
GASTEIGER

@<TRIPOS>ATOM
      1  N          2.5870   47.9710   -0.1830 N.3    67  GLU67      -0.1245
      2  CA         1.7120   47.4500    0.8550 C.3    67  GLU67       0.1567
      3  C          1.7570   48.2650    2.1370 C.2    67  GLU67       0.2260
      4  O          0.7550   48.8030    2.6180 O.2    67  GLU67      -0.2867
      5  CB         2.0770   45.9910    1.1460 C.3    67  GLU67       0.0388
      6  CG         0.9440   45.1970    1.7470 C.3    67  GLU67       0.1160
      7  CD         1.2260   43.7290    1.9620 C.2    67  GLU67       0.3649
      8  OE1        2.0610   43.1260    1.2660 O.co2  67  GLU67      -0.2457
      9  OE2        0.5810   43.1490    2.8620 O.co2  67  GLU67      -0.2457
     10  N          4.4610   39.2650   -0.1970 N.3    85  ASP85      -0.1225
     11  CA         3.1560   38.5850   -0.2420 C.3    85  ASP85       0.1805
     12  C          3.3620   37.1520    0.2300 C.2    85  ASP85       0.2598
     13  O          4.3520   36.5090   -0.1350 O.2    85  ASP85      -0.2718
     14  CB         2.6100   38.7430   -1.6510 C.3    85  ASP85       0.1424
     15  CG         1.1760   38.3480   -1.8920 C.2    85  ASP85       0.3668
     16  OD1        0.9550   37.5370   -2.8280 O.co2  85  ASP85      -0.2456
     17  OD2        0.2610   38.8130   -1.1760 O.co2  85  ASP85      -0.2456
     18  N          2.4880   36.6080    1.0680 N.am   86  GLY86      -0.1957
     19  CA         2.7440   35.3580    1.7580 C.3    86  GLY86       0.1869
     20  C          3.3400   35.5830    3.1440 C.2    86  GLY86       0.2309
     21  O          3.9890   34.6760    3.6910 O.2    86  GLY86      -0.2863
     22  N        -10.0500   31.1800   -3.9940 N.3   155  TYR155     -0.1227
     23  CA       -10.3680   31.9050   -2.7810 C.3   155  TYR155      0.1736
     24  C        -11.7900   32.4640   -2.8320 C.2   155  TYR155      0.2595
     25  O        -11.9840   33.5050   -3.4760 O.2   155  TYR155     -0.2718
     26  CB        -9.4230   33.0850   -2.5630 C.3   155  TYR155      0.0548
     27  CG        -7.9970   32.8310   -2.1740 C.ar  155  TYR155     -0.0200
     28  CD1       -7.0550   32.4020   -3.1020 C.ar  155  TYR155     -0.0009
     29  CD2       -7.5570   33.0300   -0.8660 C.ar  155  TYR155     -0.0009
     30  CE1       -5.7380   32.1700   -2.7530 C.ar  155  TYR155      0.0417
     31  CE2       -6.2420   32.8010   -0.5050 C.ar  155  TYR155      0.0417
     32  CZ        -5.3370   32.3740   -1.4490 C.ar  155  TYR155      0.1957
     33  OH        -4.0270   32.1440   -1.0960 O.3   155  TYR155     -0.2866
     34  N        -12.7630   31.8590   -2.2000 N.am  156  TYR156     -0.1976
     35  CA       -12.7500   30.5830   -1.5180 C.3   156  TYR156      0.1639
     36  C        -13.8900   29.7150   -2.0650 C.2   156  TYR156      0.2290
     37  O        -14.8700   30.2200   -2.6210 O.2   156  TYR156     -0.2864
     38  CB       -12.9110   30.7240   -0.0130 C.3   156  TYR156      0.0560
     39  CG       -11.8020   31.3030    0.8120 C.ar  156  TYR156     -0.0198
     40  CD1      -12.0570   32.3890    1.6470 C.ar  156  TYR156     -0.0009
     41  CD2      -10.5040   30.8070    0.8110 C.ar  156  TYR156     -0.0009
     42  CE1      -11.0730   32.9600    2.4310 C.ar  156  TYR156      0.0417
     43  CE2       -9.5080   31.3700    1.5940 C.ar  156  TYR156      0.0417
     44  CZ        -9.7890   32.4460    2.4040 C.ar  156  TYR156      0.1957
     45  OH        -8.8170   33.0190    3.1920 O.3   156  TYR156     -0.2866
     46  N         -1.8670   30.7210   -0.0850 N.3   170  GLY170     -0.1210
     47  CA        -1.7050   31.9470    0.6860 C.3   170  GLY170      0.1956
     48  C         -0.6720   32.8920    0.1060 C.2   170  GLY170      0.2613
     49  O          0.1160   33.5160    0.8270 O.2   170  GLY170     -0.2717
     50  N         -0.6480   33.0480   -1.2220 N.am  171  SER171     -0.1938
     51  CA         0.2310   34.0510   -1.8180 C.3   171  SER171      0.2055
     52  C         -0.2740   34.4410   -3.2040 C.2   171  SER171      0.2642
     53  O          0.0980   33.8250   -4.2070 O.2   171  SER171     -0.2714
     54  CB         1.6780   33.5510   -1.9040 C.3   171  SER171      0.2130
     55  OG         2.5010   34.6350   -2.2930 O.3   171  SER171     -0.2179
     56  N         -1.1370   35.4600   -3.2420 N.am  172  ALA172     -0.1977
     57  CA        -1.8000   35.8130   -4.4880 C.3   172  ALA172      0.1597
     58  C         -0.8310   36.0740   -5.6360 C.2   172  ALA172      0.2287
     59  O         -1.1240   35.6400   -6.7620 O.2   172  ALA172     -0.2864
     60  CB        -2.7110   37.0100   -4.2760 C.3   172  ALA172      0.0319
     61  N          0.7300   32.5780   -6.6150 N.3   175  GLU175     -0.1245
     62  CA        -0.2610   31.6060   -7.0940 C.3   175  GLU175      0.1567
     63  C         -0.6360   31.9520   -8.5250 C.2   175  GLU175      0.2260
     64  O         -0.8150   31.0670   -9.3670 O.2   175  GLU175     -0.2867
     65  CB        -1.4350   31.5590   -6.1200 C.3   175  GLU175      0.0388
     66  CG        -1.0360   30.8720   -4.8120 C.3   175  GLU175      0.1160
     67  CD        -2.0920   30.9910   -3.7340 C.2   175  GLU175      0.3649
     68  OE1       -2.0780   31.9900   -2.9860 O.co2 175  GLU175     -0.2457
     69  OE2       -2.9460   30.0890   -3.6160 O.co2 175  GLU175     -0.2457
     70  N         -9.9900   34.3910   -7.2450 N.3   189  ASP189     -0.1239
     71  CA       -10.2620   35.1380   -6.0250 C.3   189  ASP189      0.1674
     72  C        -11.6300   35.7970   -6.1830 C.2   189  ASP189      0.2266
     73  O        -11.7930   36.9220   -6.6400 O.2   189  ASP189     -0.2867
     74  CB        -9.2050   36.1870   -5.7010 C.3   189  ASP189      0.1410
     75  CG        -9.2430   36.6030   -4.2420 C.2   189  ASP189      0.3668
     76  OD1      -10.3270   36.5430   -3.6210 O.co2 189  ASP189     -0.2456
     77  OD2       -8.1760   36.9910   -3.7180 O.co2 189  ASP189     -0.2456
     78  N        -13.9690   36.1260   -3.7600 N.3   191  ARG191     -0.1245
     79  CA       -14.5690   36.4220   -2.4600 C.3   191  ARG191      0.1563
     80  C        -15.3940   37.6990   -2.5540 C.2   191  ARG191      0.2260
     81  O        -14.9180   38.7210   -3.0500 O.2   191  ARG191     -0.2867
     82  CB       -13.4790   36.5250   -1.3940 C.3   191  ARG191      0.0307
     83  CG       -12.6350   35.2550   -1.2920 C.3   191  ARG191      0.0489
     84  CD       -11.4730   35.5170   -0.3350 C.3   191  ARG191      0.2205
     85  NE       -10.4180   36.2660   -1.0310 N.pl3 191  ARG191     -0.0865
     86  CZ        -9.4140   36.8190   -0.3570 C.cat 191  ARG191      0.5346
     87  NH1       -9.3920   36.6760    0.9630 N.pl3 191  ARG191      0.1354
     88  NH2       -8.4630   37.4930   -0.9850 N.pl3 191  ARG191      0.1354
     89  N        -11.1320   41.4780   -1.8470 N.3   195  MET195     -0.1230
     90  CA       -10.1000   41.8450   -0.8770 C.3   195  MET195      0.1702
     91  C         -8.7480   42.0860   -1.5050 C.2   195  MET195      0.2592
     92  O         -7.9160   42.7600   -0.8980 O.2   195  MET195     -0.2718
     93  CB       -10.0480   40.7530    0.2070 C.3   195  MET195      0.0401
     94  CG       -11.0530   41.0430    1.3250 C.3   195  MET195      0.0596
     95  SD       -11.9700   39.5740    1.8240 S.3   195  MET195     -0.1393
     96  CE       -10.9020   38.9290    3.1110 C.3   195  MET195      0.0692
     97  N         -8.4660   41.5880   -2.7100 N.am  196  LEU196     -0.1966
     98  CA        -7.1160   41.7920   -3.2400 C.3   196  LEU196      0.1728
     99  C         -6.8320   43.2610   -3.5580 C.2   196  LEU196      0.2616
    100  O         -7.6980   43.9940   -4.0360 O.2   196  LEU196     -0.2715
    101  CB        -6.8790   40.9330   -4.4880 C.3   196  LEU196      0.0311
    102  CG        -6.7510   39.4280   -4.2080 C.3   196  LEU196      0.0022
    103  CD1       -6.4430   38.6650   -5.4870 C.3   196  LEU196      0.0001
    104  CD2       -5.6880   39.1830   -3.1480 C.3   196  LEU196      0.0001
    105  N         -5.5940   43.6570   -3.2820 N.am  197  ARG197     -0.1977
    106  CA        -5.0680   44.9890   -3.5420 C.3   197  ARG197      0.1597
    107  C         -4.2640   45.0040   -4.8350 C.2   197  ARG197      0.2287
    108  O         -3.8890   43.9610   -5.3900 O.2   197  ARG197     -0.2864
    109  CB        -4.2270   45.4450   -2.3430 C.3   197  ARG197      0.0334
    110  CG        -4.8720   45.1000   -1.0020 C.3   197  ARG197      0.0492
    111  CD        -6.1260   45.9220   -0.7640 C.3   197  ARG197      0.2205
    112  NE        -7.0350   45.3310    0.2130 N.pl3 197  ARG197     -0.0865
    113  CZ        -7.3810   45.8620    1.3750 C.cat 197  ARG197      0.5346
    114  NH1       -8.2180   45.2320    2.1860 N.pl3 197  ARG197      0.1354
    115  NH2       -6.9020   47.0380    1.7650 N.pl3 197  ARG197      0.1354
    116  N         -0.9270   43.1640   -4.7030 N.3   200  ASP200     -0.1239
    117  CA        -0.8560   41.7070   -4.5340 C.3   200  ASP200      0.1674
    118  C         -1.1320   41.0280   -5.8760 C.2   200  ASP200      0.2266
    119  O         -0.7840   39.8690   -6.1130 O.2   200  ASP200     -0.2867
    120  CB        -1.8280   41.1660   -3.4960 C.3   200  ASP200      0.1410
    121  CG        -2.0900   42.0660   -2.3180 C.2   200  ASP200      0.3668
    122  OD1       -1.1720   42.2260   -1.4880 O.co2 200  ASP200     -0.2456
    123  OD2       -3.2020   42.6280   -2.2100 O.co2 200  ASP200     -0.2456
@<TRIPOS>BOND
     1    64    63    2
     2    63    62    1
     3    70    71    1
     4    62    61    1
     5    62    65    1
     6    59    58    2
     7    73    72    2
     8    72    71    1
     9    65    66    1
    10   119   118    2
    11    71    74    1
    12   118   117    1
    13    74    75    1
    14    58    57    1
    15   103   102    1
    16   108   107    2
    17   107   106    1
    18    66    67    1
    19   116   117    1
    20   117   120    1
    21    57    60    1
    22    57    56    1
    23   101   102    1
    24   101    98    1
    25    75    77   ar
    26    75    76   ar
    27   102   104    1
    28    53    52    2
    29   100    99    2
    30    22    23    1
    31    78    79    1
    32    67    69   ar
    33    67    68   ar
    34    99   105   am
    35    99    98    1
    36   106   105    1
    37   106   109    1
    38   120   121    1
    39    25    24    2
    40    56    52   am
    41    98    97    1
    42    52    51    1
    43    28    30   ar
    44    28    27   ar
    45    81    80    2
    46    24    23    1
    47    24    34   am
    48    16    15   ar
    49    23    26    1
    50    30    32   ar
    51    97    91   am
    52    37    36    2
    53    26    27    1
    54    80    79    1
    55    79    82    1
    56   109   110    1
    57   121   123   ar
    58   121   122   ar
    59    55    54    1
    60    34    35    1
    61    27    29   ar
    62    36    35    1
    63    54    51    1
    64    15    14    1
    65    15    17   ar
    66    89    90    1
    67    51    50    1
    68    14    11    1
    69    35    38    1
    70    91    92    2
    71    91    90    1
    72    32    33    1
    73    32    31   ar
    74    82    83    1
    75    83    84    1
    76    50    48   am
    77    85    86    2
    78    85    84    1
    79   110   111    1
    80    88    86    1
    81    90    93    1
    82    29    31   ar
    83   111   112    1
    84    86    87    1
    85    11    10    1
    86    11    12    1
    87     1     2    1
    88    13    12    2
    89    46    47    1
    90    38    39    1
    91    48    47    1
    92    48    49    2
    93    93    94    1
    94   112   113    2
    95    12    18   am
    96    41    39   ar
    97    41    43   ar
    98    39    40   ar
    99     2     5    1
   100     2     3    1
   101    18    19    1
   102     5     6    1
   103     8     7   ar
   104    94    95    1
   105   113   115    1
   106   113   114    1
   107    43    44   ar
   108    40    42   ar
   109     6     7    1
   110    19    20    1
   111    95    96    1
   112     7     9   ar
   113     3     4    2
   114    44    42   ar
   115    44    45    1
   116    20    21    2
