@<TRIPOS>MOLECULE
tmp/1lbzA00.pdb
 131 124 0 0 0
SMALL
GASTEIGER

@<TRIPOS>ATOM
      1  N          2.8210   48.2090    4.4730 N.3    67  GLU67      -0.1245
      2  CA         2.0470   47.6090    5.5320 C.3    67  GLU67       0.1567
      3  C          2.2450   48.2160    6.9150 C.2    67  GLU67       0.2260
      4  O          1.2870   48.5120    7.6260 O.2    67  GLU67      -0.2867
      5  CB         2.4190   46.1130    5.6160 C.3    67  GLU67       0.0388
      6  CG         1.3130   45.2660    6.2280 C.3    67  GLU67       0.1160
      7  CD         0.9280   44.1120    5.3240 C.2    67  GLU67       0.3649
      8  OE1        1.6250   43.9100    4.3050 O.co2  67  GLU67      -0.2457
      9  OE2       -0.0570   43.4110    5.6200 O.co2  67  GLU67      -0.2457
     10  N          5.4390   45.2380    0.0270 N.3    82  ASP82      -0.1239
     11  CA         5.1500   44.3100    1.1000 C.3    82  ASP82       0.1674
     12  C          6.4990   43.6300    1.3820 C.2    82  ASP82       0.2266
     13  O          6.8620   42.7090    0.6620 O.2    82  ASP82      -0.2867
     14  CB         4.0550   43.3150    0.7690 C.3    82  ASP82       0.1410
     15  CG         3.6910   42.3930    1.9110 C.2    82  ASP82       0.3668
     16  OD1        4.6120   42.0490    2.6770 O.co2  82  ASP82      -0.2456
     17  OD2        2.5280   41.9690    2.0960 O.co2  82  ASP82      -0.2456
     18  N          7.1980   41.5550    3.4340 N.3    84  LEU84      -0.1231
     19  CA         7.0550   40.1230    3.6540 C.3    84  LEU84       0.1693
     20  C          5.5940   39.6840    3.7690 C.2    84  LEU84       0.2592
     21  O          5.0320   39.6920    4.8630 O.2    84  LEU84      -0.2718
     22  CB         7.8050   39.6540    4.9160 C.3    84  LEU84       0.0284
     23  CG         7.8310   38.1270    5.0890 C.3    84  LEU84       0.0019
     24  CD1        9.2600   37.6080    5.0980 C.3    84  LEU84       0.0001
     25  CD2        7.1030   37.7050    6.3540 C.3    84  LEU84       0.0001
     26  N          4.9800   39.3140    2.6480 N.am   85  ASP85      -0.1960
     27  CA         3.6320   38.7240    2.6470 C.3    85  ASP85       0.1840
     28  C          3.8220   37.2100    2.6490 C.2    85  ASP85       0.2623
     29  O          4.6560   36.6940    1.9030 O.2    85  ASP85      -0.2715
     30  CB         2.7900   39.2480    1.4920 C.3    85  ASP85       0.1450
     31  CG         1.3180   38.8980    1.5430 C.2    85  ASP85       0.3671
     32  OD1        0.9990   37.9170    0.8230 O.co2  85  ASP85      -0.2456
     33  OD2        0.4680   39.5140    2.2330 O.co2  85  ASP85      -0.2456
     34  N          3.1100   36.4920    3.5030 N.am   86  GLY86      -0.1940
     35  CA         3.4760   35.1340    3.8750 C.3    86  GLY86       0.2014
     36  C          4.1480   35.1370    5.2440 C.2    86  GLY86       0.2640
     37  O          5.0440   34.3570    5.5790 O.2    86  GLY86      -0.2714
     38  N          3.7080   36.0670    6.0990 N.am   87  THR87      -0.1936
     39  CA         4.2630   36.1100    7.4510 C.3    87  THR87       0.2028
     40  C          3.9040   34.8510    8.2380 C.2    87  THR87       0.2642
     41  O          4.7510   34.2720    8.9250 O.2    87  THR87      -0.2714
     42  CB         3.7660   37.3470    8.2120 C.3    87  THR87       0.1808
     43  OG1        4.1010   38.5280    7.4700 O.3    87  THR87      -0.2208
     44  CG2        4.4680   37.4630    9.5570 C.3    87  THR87       0.0379
     45  N          2.6450   34.4330    8.1300 N.am   88  PHE88      -0.1973
     46  CA         2.1640   33.2070    8.7450 C.3    88  PHE88       0.1639
     47  C          3.1260   32.0540    8.4580 C.2    88  PHE88       0.2290
     48  O          3.6900   31.4910    9.3910 O.2    88  PHE88      -0.2864
     49  CB         0.7560   32.8450    8.2570 C.3    88  PHE88       0.0560
     50  CG         0.1760   31.6720    9.0420 C.ar   88  PHE88      -0.0200
     51  CD1       -0.4800   31.8970   10.2390 C.ar   88  PHE88      -0.0042
     52  CD2        0.2940   30.3740    8.5890 C.ar   88  PHE88      -0.0042
     53  CE1       -0.9950   30.8440   10.9650 C.ar   88  PHE88      -0.0003
     54  CE2       -0.2180   29.3080    9.2980 C.ar   88  PHE88      -0.0003
     55  CZ        -0.8680   29.5530   10.4920 C.ar   88  PHE88      -0.0000
     56  N         -9.1280   32.0960   -2.8310 N.3   155  TYR155     -0.1227
     57  CA        -9.5910   32.7670   -1.6440 C.3   155  TYR155      0.1736
     58  C        -11.0340   33.2230   -1.8520 C.2   155  TYR155      0.2595
     59  O        -11.2640   34.2960   -2.4210 O.2   155  TYR155     -0.2718
     60  CB        -8.7360   33.9960   -1.3060 C.3   155  TYR155      0.0548
     61  CG        -7.2780   33.6770   -1.0680 C.ar  155  TYR155     -0.0200
     62  CD1       -6.4160   33.4120   -2.1280 C.ar  155  TYR155     -0.0009
     63  CD2       -6.7470   33.6330    0.2160 C.ar  155  TYR155     -0.0009
     64  CE1       -5.0860   33.1210   -1.9030 C.ar  155  TYR155      0.0417
     65  CE2       -5.4160   33.3420    0.4410 C.ar  155  TYR155      0.0417
     66  CZ        -4.5770   33.0840   -0.6220 C.ar  155  TYR155      0.1957
     67  OH        -3.2440   32.7900   -0.4110 O.3   155  TYR155     -0.2866
     68  N        -12.0080   32.4520   -1.4260 N.am  156  TYR156     -0.1976
     69  CA       -11.9210   31.1500   -0.8030 C.3   156  TYR156      0.1639
     70  C        -12.9410   30.2040   -1.4310 C.2   156  TYR156      0.2290
     71  O        -13.9030   30.6590   -2.0580 O.2   156  TYR156     -0.2864
     72  CB       -12.1730   31.2520    0.7020 C.3   156  TYR156      0.0560
     73  CG       -10.9300   31.4720    1.5320 C.ar  156  TYR156     -0.0198
     74  CD1      -10.9060   32.4440    2.5260 C.ar  156  TYR156     -0.0009
     75  CD2       -9.7790   30.7250    1.3380 C.ar  156  TYR156     -0.0009
     76  CE1       -9.7780   32.6620    3.2970 C.ar  156  TYR156      0.0417
     77  CE2       -8.6490   30.9410    2.1070 C.ar  156  TYR156      0.0417
     78  CZ        -8.6440   31.9100    3.0890 C.ar  156  TYR156      0.1957
     79  OH        -7.5230   32.1290    3.8610 O.3   156  TYR156     -0.2866
     80  N         -1.2960   30.9570    0.7020 N.3   170  GLY170     -0.1225
     81  CA        -1.2910   31.9960    1.7160 C.3   170  GLY170      0.1811
     82  C         -0.2040   33.0290    1.5310 C.2   170  GLY170      0.2280
     83  O          0.3810   33.5110    2.4990 O.2   170  GLY170     -0.2866
     84  N         -0.3430   36.0470   -1.5610 N.3   172  ALA172     -0.1245
     85  CA        -0.8650   36.5100   -2.8470 C.3   172  ALA172      0.1562
     86  C          0.2990   36.6680   -3.8280 C.2   172  ALA172      0.2260
     87  O          0.4130   35.8970   -4.7750 O.2   172  ALA172     -0.2867
     88  CB        -1.6230   37.8120   -2.7030 C.3   172  ALA172      0.0290
     89  N         -9.0360   35.7670   -6.0780 N.3   189  ASP189     -0.1239
     90  CA        -9.1970   36.2110   -4.6980 C.3   189  ASP189      0.1674
     91  C        -10.5720   36.8670   -4.5650 C.2   189  ASP189      0.2266
     92  O        -10.7150   38.0840   -4.4980 O.2   189  ASP189     -0.2867
     93  CB        -8.1070   37.1650   -4.2200 C.3   189  ASP189      0.1410
     94  CG        -8.1160   37.2460   -2.6980 C.2   189  ASP189      0.3668
     95  OD1       -9.1960   37.5290   -2.1330 O.co2 189  ASP189     -0.2456
     96  OD2       -7.0620   37.0170   -2.0680 O.co2 189  ASP189     -0.2456
     97  N        -12.7760   36.9980   -2.2240 N.3   191  ARG191     -0.1245
     98  CA       -13.2740   37.2410   -0.8770 C.3   191  ARG191      0.1563
     99  C        -14.3420   38.3330   -0.9200 C.2   191  ARG191      0.2260
    100  O        -14.0780   39.4220   -1.4370 O.2   191  ARG191     -0.2867
    101  CB       -12.1210   37.6260    0.0460 C.3   191  ARG191      0.0307
    102  CG       -11.6770   36.5300    0.9980 C.3   191  ARG191      0.0489
    103  CD       -10.1920   36.2370    0.9090 C.3   191  ARG191      0.2205
    104  NE        -9.3950   37.4000    0.5440 N.pl3 191  ARG191     -0.0865
    105  CZ        -8.0880   37.5170    0.7360 C.cat 191  ARG191      0.5346
    106  NH1       -7.4120   36.5220    1.3020 N.pl3 191  ARG191      0.1354
    107  NH2       -7.4300   38.6130    0.3740 N.pl3 191  ARG191      0.1354
    108  N        -10.5830   42.3220    0.5390 N.3   195  MET195     -0.1230
    109  CA        -9.5460   42.1770    1.5540 C.3   195  MET195      0.1702
    110  C         -8.1430   42.5050    1.0790 C.2   195  MET195      0.2592
    111  O         -7.3450   43.1320    1.7880 O.2   195  MET195     -0.2718
    112  CB        -9.5890   40.7260    2.0780 C.3   195  MET195      0.0401
    113  CG       -10.8120   40.4460    2.9410 C.3   195  MET195      0.0596
    114  SD       -10.5160   39.2460    4.2510 S.3   195  MET195     -0.1393
    115  CE        -9.9380   40.3190    5.5630 C.3   195  MET195      0.0692
    116  N         -7.7930   42.0820   -0.1410 N.am  196  LEU196     -0.1980
    117  CA        -6.4390   42.3410   -0.6280 C.3   196  LEU196      0.1596
    118  C         -6.1600   43.8440   -0.6760 C.2   196  LEU196      0.2287
    119  O         -7.0510   44.6460   -0.9370 O.2   196  LEU196     -0.2864
    120  CB        -6.1890   41.7260   -1.9980 C.3   196  LEU196      0.0297
    121  CG        -4.9720   40.8180   -2.1400 C.3   196  LEU196      0.0022
    122  CD1       -5.1050   39.5980   -1.2420 C.3   196  LEU196      0.0001
    123  CD2       -4.7810   40.4020   -3.5930 C.3   196  LEU196      0.0001
    124  N         -0.0250   43.7100   -1.7720 N.3   200  ASP200     -0.1239
    125  CA        -0.1540   42.2920   -2.0780 C.3   200  ASP200      0.1674
    126  C         -0.3070   42.0760   -3.5860 C.2   200  ASP200      0.2266
    127  O          0.2690   41.1510   -4.1610 O.2   200  ASP200     -0.2867
    128  CB        -1.3570   41.7160   -1.3160 C.3   200  ASP200      0.1410
    129  CG        -1.1540   41.8340    0.1910 C.2   200  ASP200      0.3668
    130  OD1        0.0210   41.7200    0.5950 O.co2 200  ASP200     -0.2456
    131  OD2       -2.1240   42.0390    0.9460 O.co2 200  ASP200     -0.2456
@<TRIPOS>BOND
     1    89    90    1
     2    87    86    2
     3    90    91    1
     4    90    93    1
     5    91    92    2
     6    93    94    1
     7   127   126    2
     8    86    85    1
     9   123   121    1
    10   126   125    1
    11    85    88    1
    12    85    84    1
    13    56    57    1
    14    94    95   ar
    15    94    96   ar
    16    59    58    2
    17    97    98    1
    18   121   120    1
    19   121   122    1
    20    62    64   ar
    21    62    61   ar
    22   125   124    1
    23   125   128    1
    24    71    70    2
    25   120   117    1
    26    64    66   ar
    27    58    57    1
    28    58    68   am
    29    57    60    1
    30   100    99    2
    31    70    69    1
    32    68    69    1
    33   128   129    1
    34    60    61    1
    35    61    63   ar
    36   119   118    2
    37    99    98    1
    38    98   101    1
    39    69    72    1
    40   118   117    1
    41   117   116    1
    42    66    67    1
    43    66    65   ar
    44   116   110   am
    45    10    11    1
    46   101   102    1
    47   129   130   ar
    48   129   131   ar
    49    63    65   ar
    50   107   105    1
    51   108   109    1
    52   104   105    2
    53   104   103    1
    54    13    12    2
    55    72    73    1
    56    80    81    1
    57   105   106    1
    58    14    11    1
    59    14    15    1
    60    32    31   ar
    61   103   102    1
    62   110   109    1
    63   110   111    2
    64    11    12    1
    65    75    73   ar
    66    75    77   ar
    67    30    31    1
    68    30    27    1
    69    82    81    1
    70    82    83    2
    71    73    74   ar
    72    31    33   ar
    73   109   112    1
    74    29    28    2
    75    15    17   ar
    76    15    16   ar
    77   112   113    1
    78    77    78   ar
    79    74    76   ar
    80    27    26    1
    81    27    28    1
    82    26    20   am
    83    28    34   am
    84   113   114    1
    85    78    76   ar
    86    78    79    1
    87    18    19    1
    88    34    35    1
    89    19    20    1
    90    19    22    1
    91    20    21    2
    92    35    36    1
    93   114   115    1
    94     8     7   ar
    95     1     2    1
    96    22    23    1
    97    23    24    1
    98    23    25    1
    99    36    37    2
   100    36    38   am
   101     7     9   ar
   102     7     6    1
   103     2     5    1
   104     2     3    1
   105     5     6    1
   106    38    39    1
   107     3     4    2
   108    39    42    1
   109    39    40    1
   110    43    42    1
   111    45    40   am
   112    45    46    1
   113    42    44    1
   114    40    41    2
   115    49    46    1
   116    49    50    1
   117    47    46    1
   118    47    48    2
   119    52    50   ar
   120    52    54   ar
   121    50    51   ar
   122    54    55   ar
   123    51    53   ar
   124    55    53   ar
