@<TRIPOS>MOLECULE
tmp/1lc3A00.pdb
 190 182 0 0 0
SMALL
GASTEIGER

@<TRIPOS>ATOM
      1  N         37.7980   14.4180   60.4590 N.3    16  GLY16      -0.1210
      2  CA        36.3990   14.2490   60.7800 C.3    16  GLY16       0.1956
      3  C         35.7440   13.9640   59.4380 C.2    16  GLY16       0.2612
      4  O         36.3750   13.3690   58.5600 O.2    16  GLY16      -0.2717
      5  N         34.5090   14.4080   59.2510 N.am   17  ARG17      -0.1965
      6  CA        33.8070   14.1650   57.9940 C.3    17  ARG17       0.1729
      7  C         34.5320   14.8120   56.8150 C.2    17  ARG17       0.2616
      8  O         34.8360   14.1490   55.8170 O.2    17  ARG17      -0.2715
      9  CB        32.3800   14.7160   58.0710 C.3    17  ARG17       0.0348
     10  CG        31.4840   14.2830   56.9210 C.3    17  ARG17       0.0492
     11  CD        31.1130   12.8140   57.0520 C.3    17  ARG17       0.2205
     12  NE        30.3130   12.5790   58.2510 N.pl3  17  ARG17      -0.0865
     13  CZ        29.0380   12.9360   58.3810 C.cat  17  ARG17       0.5346
     14  NH1       28.4100   13.5390   57.3790 N.pl3  17  ARG17       0.1354
     15  NH2       28.3930   12.7060   59.5170 N.pl3  17  ARG17       0.1354
     16  N         34.8010   16.1090   56.9300 N.am   18  ALA18      -0.1977
     17  CA        35.4740   16.8410   55.8610 C.3    18  ALA18       0.1597
     18  C         36.8560   16.2710   55.5700 C.2    18  ALA18       0.2287
     19  O         37.2220   16.0760   54.4100 O.2    18  ALA18      -0.2864
     20  CB        35.5760   18.3180   56.2200 C.3    18  ALA18       0.0319
     21  N         40.8510   20.9350   58.0220 N.3    72  CYS72      -0.1221
     22  CA        39.5110   20.3550   58.1140 C.3    72  CYS72       0.1808
     23  C         39.0130   20.1050   59.5350 C.2    72  CYS72       0.2602
     24  O         38.0440   19.3720   59.7350 O.2    72  CYS72      -0.2717
     25  CB        39.4880   19.0310   57.3400 C.3    72  CYS72       0.0970
     26  SG        40.0960   19.1530   55.6350 S.3    72  CYS72      -0.0800
     27  N         39.6800   20.7060   60.5130 N.am   73  SER73      -0.1938
     28  CA        39.3040   20.5500   61.9210 C.3    73  SER73       0.2055
     29  C         38.0550   21.3730   62.2410 C.2    73  SER73       0.2643
     30  O         37.5210   22.0630   61.3700 O.2    73  SER73      -0.2714
     31  CB        40.4630   21.0020   62.8080 C.3    73  SER73       0.2130
     32  OG        40.8390   22.3330   62.5010 O.3    73  SER73      -0.2179
     33  N         37.5800   21.3110   63.4820 N.am   74  GLU74      -0.1963
     34  CA        36.3990   22.0910   63.8230 C.3    74  GLU74       0.1733
     35  C         36.7250   23.5750   63.6970 C.2    74  GLU74       0.2617
     36  O         37.8780   23.9930   63.8350 O.2    74  GLU74      -0.2715
     37  CB        35.8930   21.7780   65.2370 C.3    74  GLU74       0.0429
     38  CG        36.8030   22.2340   66.3520 C.3    74  GLU74       0.1163
     39  CD        38.0160   21.3550   66.5030 C.2    74  GLU74       0.3649
     40  OE1       38.9120   21.7170   67.2900 O.co2  74  GLU74      -0.2457
     41  OE2       38.0650   20.2970   65.8410 O.co2  74  GLU74      -0.2457
     42  N         35.6940   24.3610   63.4260 N.am   75  SER75      -0.1950
     43  CA        35.8270   25.7980   63.2260 C.3    75  SER75       0.1924
     44  C         36.6870   26.5440   64.2320 C.2    75  SER75       0.2314
     45  O         37.5120   27.3670   63.8490 O.2    75  SER75      -0.2863
     46  CB        34.4380   26.4390   63.1920 C.3    75  SER75       0.2116
     47  OG        33.6120   25.7480   62.2760 O.3    75  SER75      -0.2180
     48  N         40.4720   26.5670   63.4480 N.3    78  HIS78      -0.1241
     49  CA        40.9690   27.0130   62.1480 C.3    78  HIS78       0.1621
     50  C         42.0140   28.1140   62.2030 C.2    78  HIS78       0.2264
     51  O         43.0720   28.0010   61.5820 O.2    78  HIS78      -0.2867
     52  CB        39.8190   27.4860   61.2580 C.3    78  HIS78       0.0745
     53  CG        38.9350   26.3830   60.7750 C.ar   78  HIS78       0.0817
     54  ND1       37.8580   26.6080   59.9460 N.ar   78  HIS78      -0.2268
     55  CD2       38.9650   25.0490   61.0000 C.ar   78  HIS78       0.1154
     56  CE1       37.2650   25.4600   59.6790 C.ar   78  HIS78       0.1986
     57  NE2       37.9170   24.4970   60.3060 N.ar   78  HIS78      -0.2212
     58  N         38.3240   24.7600   55.3210 N.3    95  GLU95      -0.1231
     59  CA        36.8780   24.6670   55.1480 C.3    95  GLU95       0.1699
     60  C         36.2440   25.8700   55.8530 C.2    95  GLU95       0.2592
     61  O         36.7720   26.3570   56.8520 O.2    95  GLU95      -0.2718
     62  CB        36.3470   23.3700   55.7610 C.3    95  GLU95       0.0402
     63  CG        37.1340   22.0970   55.4310 C.3    95  GLU95       0.1161
     64  CD        37.1350   21.6940   53.9560 C.2    95  GLU95       0.3649
     65  OE1       37.6260   20.5830   53.6680 O.co2  95  GLU95      -0.2457
     66  OE2       36.6620   22.4680   53.0910 O.co2  95  GLU95      -0.2457
     67  N         35.1290   26.3690   55.3330 N.am   96  TYR96      -0.1963
     68  CA        34.4930   27.5160   55.9690 C.3    96  TYR96       0.1756
     69  C         33.9460   27.1010   57.3250 C.2    96  TYR96       0.2461
     70  O         33.6050   25.9390   57.5310 O.2    96  TYR96      -0.2730
     71  CB        33.3610   28.0750   55.0900 C.3    96  TYR96       0.0574
     72  CG        32.0720   27.2730   55.0750 C.ar   96  TYR96      -0.0198
     73  CD1       31.2170   27.2560   56.1810 C.ar   96  TYR96      -0.0009
     74  CD2       31.6960   26.5500   53.9440 C.ar   96  TYR96      -0.0009
     75  CE1       30.0260   26.5410   56.1560 C.ar   96  TYR96       0.0417
     76  CE2       30.5030   25.8350   53.9070 C.ar   96  TYR96       0.0417
     77  CZ        29.6730   25.8340   55.0160 C.ar   96  TYR96       0.1957
     78  OH        28.4910   25.1280   54.9850 O.3    96  TYR96      -0.2866
     79  N         33.9140   28.0330   58.2890 N.am   97  PRO97      -0.2727
     80  CA        34.3630   29.4250   58.1870 C.3    97  PRO97       0.1402
     81  C         35.8680   29.4490   58.4850 C.2    97  PRO97       0.2269
     82  O         36.3260   28.7450   59.3830 O.2    97  PRO97      -0.2865
     83  CB        33.5330   30.1280   59.2600 C.3    97  PRO97       0.0296
     84  CG        33.4270   29.0790   60.3210 C.3    97  PRO97       0.0237
     85  CD        33.1710   27.8060   59.5440 C.3    97  PRO97       0.0939
     86  N         37.1870   27.2530   51.4110 N.3   122  GLU122     -0.1245
     87  CA        36.2540   26.4440   50.6360 C.3   122  GLU122      0.1567
     88  C         34.8100   26.8820   50.8460 C.2   122  GLU122      0.2260
     89  O         34.3830   27.1300   51.9730 O.2   122  GLU122     -0.2867
     90  CB        36.4110   24.9630   51.0090 C.3   122  GLU122      0.0388
     91  CG        35.2040   24.0630   50.6910 C.3   122  GLU122      0.1160
     92  CD        34.1510   24.0860   51.7910 C.2   122  GLU122      0.3649
     93  OE1       34.4960   23.7500   52.9460 O.co2 122  GLU122     -0.2457
     94  OE2       32.9860   24.4350   51.5160 O.co2 122  GLU122     -0.2457
     95  N         31.7720   25.2290   49.0810 N.3   124  VAL124     -0.1245
     96  CA        31.0890   24.3170   48.1750 C.3   124  VAL124      0.1561
     97  C         29.6540   24.7280   47.9210 C.2   124  VAL124      0.2260
     98  O         29.0670   24.3180   46.9230 O.2   124  VAL124     -0.2867
     99  CB        31.0910   22.8590   48.6890 C.3   124  VAL124      0.0252
    100  CG1       32.5020   22.3110   48.6840 C.3   124  VAL124      0.0019
    101  CG2       30.4920   22.7870   50.0770 C.3   124  VAL124      0.0019
    102  N         17.0700   28.1060   57.0110 N.3   150  PHE150     -0.1241
    103  CA        17.6870   26.7930   57.0640 C.3   150  PHE150      0.1605
    104  C         17.4900   26.1960   58.4460 C.2   150  PHE150      0.2264
    105  O         17.8680   26.8000   59.4480 O.2   150  PHE150     -0.2867
    106  CB        19.1850   26.8790   56.7630 C.3   150  PHE150      0.0534
    107  CG        19.8070   25.5510   56.4340 C.ar  150  PHE150     -0.0203
    108  CD1       19.6670   25.0010   55.1640 C.ar  150  PHE150     -0.0042
    109  CD2       20.5010   24.8340   57.4000 C.ar  150  PHE150     -0.0042
    110  CE1       20.2110   23.7530   54.8630 C.ar  150  PHE150     -0.0003
    111  CE2       21.0480   23.5870   57.1090 C.ar  150  PHE150     -0.0003
    112  CZ        20.9020   23.0460   55.8390 C.ar  150  PHE150     -0.0000
    113  N         23.9290   22.1060   67.0640 N.3   155  LEU155     -0.1245
    114  CA        25.3460   22.1290   66.7310 C.3   155  LEU155      0.1561
    115  C         26.0990   22.8390   67.8510 C.2   155  LEU155      0.2260
    116  O         25.7090   23.9280   68.2660 O.2   155  LEU155     -0.2867
    117  CB        25.5530   22.8670   65.4070 C.3   155  LEU155      0.0270
    118  CG        26.9380   22.8070   64.7660 C.3   155  LEU155      0.0019
    119  CD1       27.2270   21.3820   64.3000 C.3   155  LEU155      0.0001
    120  CD2       26.9920   23.7720   63.5900 C.3   155  LEU155      0.0001
    121  N         32.4620   24.5580   69.3190 N.3   159  ARG159     -0.1231
    122  CA        33.3180   23.9270   68.3220 C.3   159  ARG159      0.1694
    123  C         33.1230   24.4570   66.9090 C.2   159  ARG159      0.2592
    124  O         34.0960   24.7160   66.2030 O.2   159  ARG159     -0.2718
    125  CB        33.0940   22.4120   68.3190 C.3   159  ARG159      0.0321
    126  CG        33.5690   21.6980   69.5760 C.3   159  ARG159      0.0489
    127  CD        33.1740   20.2260   69.5520 C.3   159  ARG159      0.2205
    128  NE        33.6650   19.5260   68.3660 N.pl3 159  ARG159     -0.0865
    129  CZ        34.9500   19.3050   68.1000 C.cat 159  ARG159      0.5346
    130  NH1       35.8870   19.7290   68.9380 N.pl3 159  ARG159      0.1354
    131  NH2       35.2980   18.6580   66.9950 N.pl3 159  ARG159      0.1354
    132  N         31.8720   24.6290   66.5000 N.am  160  PHE160     -0.1976
    133  CA        31.5970   25.0880   65.1460 C.3   160  PHE160      0.1639
    134  C         31.3040   26.5690   64.9990 C.2   160  PHE160      0.2290
    135  O         31.1920   27.0740   63.8800 O.2   160  PHE160     -0.2864
    136  CB        30.4680   24.2530   64.5450 C.3   160  PHE160      0.0560
    137  CG        30.7880   22.7910   64.4790 C.ar  160  PHE160     -0.0200
    138  CD1       30.4680   21.9450   65.5360 C.ar  160  PHE160     -0.0042
    139  CD2       31.4820   22.2690   63.3920 C.ar  160  PHE160     -0.0042
    140  CE1       30.8380   20.6010   65.5130 C.ar  160  PHE160     -0.0003
    141  CE2       31.8570   20.9280   63.3620 C.ar  160  PHE160     -0.0003
    142  CZ        31.5340   20.0940   64.4250 C.ar  160  PHE160     -0.0000
    143  N         28.7600   29.4000   61.5970 N.3   166  SER166     -0.1217
    144  CA        28.5920   28.0010   61.2120 C.3   166  SER166      0.1889
    145  C         27.6970   27.8790   59.9830 C.2   166  SER166      0.2288
    146  O         27.8740   26.9680   59.1750 O.2   166  SER166     -0.2866
    147  CB        27.9960   27.1880   62.3660 C.3   166  SER166      0.2089
    148  OG        26.6480   27.5520   62.6140 O.3   166  SER166     -0.2183
    149  N         24.7770   30.0360   53.9960 N.3   170  ARG170     -0.1245
    150  CA        23.5080   30.6190   53.5650 C.3   170  ARG170      0.1563
    151  C         23.7140   32.1010   53.2580 C.2   170  ARG170      0.2260
    152  O         23.2050   32.6190   52.2650 O.2   170  ARG170     -0.2867
    153  CB        22.4320   30.4470   54.6400 C.3   170  ARG170      0.0307
    154  CG        21.5760   29.2070   54.4480 C.3   170  ARG170      0.0489
    155  CD        22.3570   27.9280   54.6820 C.3   170  ARG170      0.2205
    156  NE        22.6450   27.7080   56.0990 N.pl3 170  ARG170     -0.0865
    157  CZ        23.2010   26.6030   56.5870 C.cat 170  ARG170      0.5346
    158  NH1       23.5360   25.6080   55.7680 N.pl3 170  ARG170      0.1354
    159  NH2       23.4100   26.4800   57.8920 N.pl3 170  ARG170      0.1354
    160  N         17.8450   25.6660   64.7520 N.3   217  LYS217     -0.1245
    161  CA        18.4070   24.3750   65.1160 C.3   217  LYS217      0.1561
    162  C         17.6580   23.8240   66.3170 C.2   217  LYS217      0.2260
    163  O         17.3710   24.5500   67.2710 O.2   217  LYS217     -0.2867
    164  CB        19.8980   24.5020   65.4420 C.3   217  LYS217      0.0271
    165  CG        20.7590   24.9650   64.2770 C.3   217  LYS217      0.0035
    166  CD        22.2310   24.9510   64.6560 C.3   217  LYS217      0.0206
    167  CE        23.0950   25.6070   63.5820 C.3   217  LYS217      0.1093
    168  NZ        23.0080   24.9020   62.2690 N.3   217  LYS217     -0.1314
    169  N         16.8170   18.5040   58.2010 N.3   223  ARG223     -0.1245
    170  CA        17.5900   19.4890   57.4650 C.3   223  ARG223      0.1563
    171  C         16.7540   19.9850   56.2890 C.2   223  ARG223      0.2260
    172  O         16.5910   19.2830   55.2880 O.2   223  ARG223     -0.2867
    173  CB        18.8970   18.8650   56.9700 C.3   223  ARG223      0.0307
    174  CG        19.8200   19.8240   56.2430 C.3   223  ARG223      0.0489
    175  CD        21.1680   19.1740   55.9670 C.3   223  ARG223      0.2205
    176  NE        21.8560   18.8110   57.2040 N.pl3 223  ARG223     -0.0865
    177  CZ        23.0340   18.1960   57.2540 C.cat 223  ARG223      0.5346
    178  NH1       23.6640   17.8690   56.1340 N.pl3 223  ARG223      0.1354
    179  NH2       23.5840   17.9090   58.4270 N.pl3 223  ARG223      0.1354
    180  N         33.2620   18.3960   46.3280 N.3   249  PHE249     -0.1241
    181  CA        34.5040   18.8000   46.9730 C.3   249  PHE249      0.1605
    182  C         35.6750   18.7420   45.9940 C.2   249  PHE249      0.2264
    183  O         36.6160   19.5250   46.1190 O.2   249  PHE249     -0.2867
    184  CB        34.7690   17.9820   48.2450 C.3   249  PHE249      0.0534
    185  CG        33.9320   18.4220   49.4160 C.ar  249  PHE249     -0.0203
    186  CD1       32.6650   17.8870   49.6230 C.ar  249  PHE249     -0.0042
    187  CD2       34.3840   19.4190   50.2730 C.ar  249  PHE249     -0.0042
    188  CE1       31.8580   18.3410   50.6670 C.ar  249  PHE249     -0.0003
    189  CE2       33.5820   19.8830   51.3230 C.ar  249  PHE249     -0.0003
    190  CZ        32.3190   19.3410   51.5150 C.ar  249  PHE249     -0.0000
@<TRIPOS>BOND
     1   182   183    2
     2   182   181    1
     3   180   181    1
     4    98    97    2
     5   181   184    1
     6    97    96    1
     7    96    99    1
     8    96    95    1
     9   184   185    1
    10   100    99    1
    11    99   101    1
    12   185   186   ar
    13   185   187   ar
    14   186   188   ar
    15   187   189   ar
    16    87    88    1
    17    87    90    1
    18    87    86    1
    19   188   190   ar
    20    91    90    1
    21    91    92    1
    22    88    89    2
    23   189   190   ar
    24    94    92   ar
    25    92    93   ar
    26   152   151    2
    27    66    64   ar
    28   151   150    1
    29   150   149    1
    30   150   153    1
    31    65    64   ar
    32    76    74   ar
    33    76    77   ar
    34    74    72   ar
    35    64    63    1
    36    19    18    2
    37   154   153    1
    38   154   155    1
    39   155   156    1
    40   110   108   ar
    41   110   112   ar
    42    78    77    1
    43    77    75   ar
    44    72    71    1
    45    72    73   ar
    46    71    68    1
    47    59    58    1
    48    59    62    1
    49    59    60    1
    50   108   107   ar
    51   172   171    2
    52    67    60   am
    53    67    68    1
    54    63    62    1
    55    18    17    1
    56    26    25    1
    57   158   157    1
    58     8     7    2
    59   112   111   ar
    60    60    61    2
    61    17    20    1
    62    17    16    1
    63   175   174    1
    64   175   176    1
    65    68    69    1
    66   156   157    2
    67   178   177    1
    68    75    73   ar
    69   174   173    1
    70   171   170    1
    71   107   106    1
    72   107   109   ar
    73   157   159    1
    74   106   103    1
    75     7    16   am
    76     7     6    1
    77    10    11    1
    78    10     9    1
    79   173   170    1
    80   102   103    1
    81    11    12    1
    82   103   104    1
    83   111   109   ar
    84   176   177    2
    85   177   179    1
    86    69    70    2
    87    69    79   am
    88    25    22    1
    89    14    13    1
    90   170   169    1
    91     6     9    1
    92     6     5    1
    93    21    22    1
    94    22    23    1
    95    80    79    1
    96    80    81    1
    97    80    83    1
    98    12    13    2
    99    79    85    1
   100    13    15    1
   101   104   105    2
   102    81    82    2
   103     4     3    2
   104   146   145    2
   105     5     3   am
   106    83    84    1
   107     3     2    1
   108    23    24    2
   109    23    27   am
   110    85    84    1
   111    56    54   ar
   112    56    57   ar
   113    54    53   ar
   114   145   144    1
   115    57    55   ar
   116     1     2    1
   117    27    28    1
   118    53    55   ar
   119    53    52    1
   120   144   143    1
   121   144   147    1
   122    52    49    1
   123    30    29    2
   124    51    50    2
   125    28    29    1
   126    28    31    1
   127    49    50    1
   128    49    48    1
   129    29    33   am
   130   168   167    1
   131    47    46    1
   132   147   148    1
   133    32    31    1
   134    46    43    1
   135    43    42    1
   136    43    44    1
   137   141   139   ar
   138   141   142   ar
   139   139   137   ar
   140    42    35   am
   141    33    34    1
   142   167   166    1
   143   120   118    1
   144    35    34    1
   145    35    36    2
   146    34    37    1
   147    45    44    2
   148   135   134    2
   149   165   166    1
   150   165   164    1
   151   119   118    1
   152   142   140   ar
   153   137   136    1
   154   137   138   ar
   155   136   133    1
   156   160   161    1
   157   118   117    1
   158   134   133    1
   159   161   164    1
   160   161   162    1
   161   133   132    1
   162    37    38    1
   163   117   114    1
   164   140   138   ar
   165    41    39   ar
   166   124   123    2
   167   162   163    2
   168    38    39    1
   169   132   123   am
   170    39    40   ar
   171   114   113    1
   172   114   115    1
   173   123   122    1
   174   131   129    1
   175   115   116    2
   176   129   128    2
   177   129   130    1
   178   125   122    1
   179   125   126    1
   180   122   121    1
   181   128   127    1
   182   127   126    1
