@<TRIPOS>MOLECULE
tmp/1lc7A00.pdb
 113 108 0 0 0
SMALL
GASTEIGER

@<TRIPOS>ATOM
      1  N         33.3460   30.9020   17.4170 N.3     5  HIS5       -0.1226
      2  CA        32.2600   29.9230   17.2530 C.3     5  HIS5        0.1752
      3  C         32.5230   28.6110   18.0110 C.2     5  HIS5        0.2596
      4  O         33.6740   28.2600   18.2950 O.2     5  HIS5       -0.2718
      5  CB        32.0350   29.6000   15.7610 C.3     5  HIS5        0.0759
      6  CG        31.6330   30.7870   14.9380 C.ar    5  HIS5        0.0818
      7  ND1       30.4610   31.4810   15.1600 N.ar    5  HIS5       -0.2268
      8  CD2       32.2570   31.4180   13.9150 C.ar    5  HIS5        0.1154
      9  CE1       30.3850   32.4900   14.3070 C.ar    5  HIS5        0.1986
     10  NE2       31.4600   32.4720   13.5410 N.ar    5  HIS5       -0.2212
     11  N         31.4330   27.9100   18.3210 N.am    6  GLY6       -0.1957
     12  CA        31.5150   26.6240   19.0000 C.3     6  GLY6        0.1869
     13  C         32.0320   25.5670   18.0320 C.2     6  GLY6        0.2309
     14  O         32.3900   25.8860   16.8870 O.2     6  GLY6       -0.2863
     15  N         28.5350   22.6880   19.6250 N.3    28  ALA28      -0.1231
     16  CA        28.0080   22.8810   18.2660 C.3    28  ALA28       0.1694
     17  C         26.7050   22.0980   18.3010 C.2    28  ALA28       0.2592
     18  O         26.6200   21.0800   18.9760 O.2    28  ALA28      -0.2718
     19  CB        28.9560   22.2810   17.2070 C.3    28  ALA28       0.0304
     20  N         25.7130   22.5370   17.5510 N.am   29  ASN29      -0.1960
     21  CA        24.3870   21.9110   17.6040 C.3    29  ASN29       0.1819
     22  C         24.0100   21.1210   16.4000 C.2    29  ASN29       0.2621
     23  O         23.1570   21.5280   15.5890 O.2    29  ASN29      -0.2715
     24  CB        23.3970   23.0310   17.8430 C.3    29  ASN29       0.1195
     25  CG        23.8270   23.8840   18.9830 C.2    29  ASN29       0.2630
     26  OD1       24.1230   23.3620   20.0440 O.2    29  ASN29      -0.2716
     27  ND2       23.8770   25.1970   18.7850 N.am   29  ASN29      -0.0877
     28  N         24.6370   19.9640   16.2850 N.am   30  ILE30      -0.1977
     29  CA        24.4250   19.0850   15.1360 C.3    30  ILE30       0.1596
     30  C         23.4860   17.9380   15.5240 C.2    30  ILE30       0.2287
     31  O         23.6400   17.3570   16.6030 O.2    30  ILE30      -0.2864
     32  CB        25.7770   18.4830   14.6650 C.3    30  ILE30       0.0276
     33  CG1       26.8360   19.5910   14.4850 C.3    30  ILE30       0.0022
     34  CG2       25.5790   17.7620   13.3390 C.3    30  ILE30       0.0022
     35  CD1       26.4230   20.6500   13.4920 C.3    30  ILE30       0.0001
     36  N         23.7700   35.4790   16.4670 N.3   105  PHE105     -0.1227
     37  CA        24.9030   34.8730   15.7350 C.3   105  PHE105      0.1736
     38  C         25.8740   35.9970   15.3600 C.2   105  PHE105      0.2595
     39  O         25.4470   37.0080   14.8150 O.2   105  PHE105     -0.2718
     40  CB        24.3390   34.1820   14.4980 C.3   105  PHE105      0.0547
     41  CG        25.3080   33.3290   13.7970 C.ar  105  PHE105     -0.0202
     42  CD1       26.1280   32.4620   14.5160 C.ar  105  PHE105     -0.0042
     43  CD2       25.4120   33.3750   12.4070 C.ar  105  PHE105     -0.0042
     44  CE1       27.0520   31.6540   13.8480 C.ar  105  PHE105     -0.0003
     45  CE2       26.3190   32.5720   11.7350 C.ar  105  PHE105     -0.0003
     46  CZ        27.1460   31.7090   12.4500 C.ar  105  PHE105     -0.0000
     47  N         27.1750   35.8250   15.6170 N.am  106  ALA106     -0.1980
     48  CA        28.1460   36.8980   15.3480 C.3   106  ALA106      0.1597
     49  C         28.3700   37.3090   13.8990 C.2   106  ALA106      0.2287
     50  O         28.7630   38.4490   13.6210 O.2   106  ALA106     -0.2864
     51  CB        29.4990   36.5360   15.9710 C.3   106  ALA106      0.0319
     52  N         19.7820   32.4340   18.2450 N.3   154  ASN154     -0.1240
     53  CA        20.9420   31.7450   18.7530 C.3   154  ASN154      0.1653
     54  C         21.6610   32.8320   19.5600 C.2   154  ASN154      0.2266
     55  O         21.9370   33.9230   19.0360 O.2   154  ASN154     -0.2867
     56  CB        21.8140   31.2430   17.6260 C.3   154  ASN154      0.1155
     57  CG        22.9610   30.4530   18.1560 C.2   154  ASN154      0.2627
     58  OD1       22.9920   29.2300   18.0400 O.2   154  ASN154     -0.2716
     59  ND2       23.8930   31.1440   18.8120 N.am  154  ASN154     -0.0877
     60  N         17.6720   26.9870   12.3300 N.3   185  PHE185     -0.1241
     61  CA        17.1660   25.8940   13.1700 C.3   185  PHE185      0.1605
     62  C         15.6670   25.6330   13.1150 C.2   185  PHE185      0.2264
     63  O         15.1610   24.8220   13.8990 O.2   185  PHE185     -0.2867
     64  CB        17.5320   26.1550   14.6370 C.3   185  PHE185      0.0534
     65  CG        18.9980   26.1060   14.9100 C.ar  185  PHE185     -0.0203
     66  CD1       19.7580   27.2720   14.9290 C.ar  185  PHE185     -0.0042
     67  CD2       19.6310   24.8930   15.1070 C.ar  185  PHE185     -0.0042
     68  CE1       21.1140   27.2290   15.1330 C.ar  185  PHE185     -0.0003
     69  CE2       21.0000   24.8320   15.3120 C.ar  185  PHE185     -0.0003
     70  CZ        21.7490   26.0040   15.3240 C.ar  185  PHE185     -0.0000
     71  N         23.0080   21.5430   10.1770 N.3   213  LYS213     -0.1245
     72  CA        22.6390   21.1090   11.5150 C.3   213  LYS213      0.1561
     73  C         21.5800   19.9970   11.4950 C.2   213  LYS213      0.2260
     74  O         21.7810   18.9340   12.0880 O.2   213  LYS213     -0.2867
     75  CB        22.1390   22.3050   12.3210 C.3   213  LYS213      0.0271
     76  CG        23.1410   23.4630   12.2890 C.3   213  LYS213      0.0035
     77  CD        22.4890   24.7930   11.9010 C.3   213  LYS213      0.0206
     78  CE        23.5610   25.8940   11.7730 C.3   213  LYS213      0.1093
     79  NZ        24.4260   25.9190   12.9800 N.3   213  LYS213     -0.1314
     80  N         29.6220   25.5570   24.9980 N.3   320  ARG320     -0.1245
     81  CA        29.8070   26.9020   24.4490 C.3   320  ARG320      0.1563
     82  C         29.7380   27.9790   25.5300 C.2   320  ARG320      0.2260
     83  O         28.8300   27.9710   26.3540 O.2   320  ARG320     -0.2867
     84  CB        28.7210   27.1470   23.3750 C.3   320  ARG320      0.0307
     85  CG        28.7560   28.5460   22.7050 C.3   320  ARG320      0.0489
     86  CD        29.9860   28.7280   21.7990 C.3   320  ARG320      0.2205
     87  NE        29.7130   29.7450   20.7660 N.pl3 320  ARG320     -0.0865
     88  CZ        30.1940   30.9850   20.7580 C.cat 320  ARG320      0.5346
     89  NH1       30.9910   31.4110   21.7290 N.pl3 320  ARG320      0.1354
     90  NH2       29.8840   31.8060   19.7550 N.pl3 320  ARG320      0.1354
     91  N         29.1930   37.0160   23.5000 N.3   325  TYR325     -0.1241
     92  CA        28.0210   37.5390   22.8160 C.3   325  TYR325      0.1605
     93  C         27.6540   38.8940   23.4190 C.2   325  TYR325      0.2264
     94  O         27.5110   39.0190   24.6230 O.2   325  TYR325     -0.2867
     95  CB        26.8090   36.6350   23.0550 C.3   325  TYR325      0.0534
     96  CG        26.7720   35.3920   22.1940 C.ar  325  TYR325     -0.0201
     97  CD1       26.0610   35.3600   21.0140 C.ar  325  TYR325     -0.0009
     98  CD2       27.4600   34.2510   22.5850 C.ar  325  TYR325     -0.0009
     99  CE1       26.0180   34.1950   20.2330 C.ar  325  TYR325      0.0417
    100  CE2       27.4360   33.1010   21.8290 C.ar  325  TYR325      0.0417
    101  CZ        26.7060   33.0710   20.6560 C.ar  325  TYR325      0.1957
    102  OH        26.6330   31.8920   19.9410 O.3   325  TYR325     -0.2866
    103  N         26.0010   27.6710   26.4940 N.3   334  ARG334     -0.1245
    104  CA        24.9990   27.0230   25.6500 C.3   334  ARG334      0.1563
    105  C         25.4330   25.5610   25.4680 C.2   334  ARG334      0.2260
    106  O         26.6270   25.2620   25.2730 O.2   334  ARG334     -0.2867
    107  CB        24.9480   27.6400   24.2450 C.3   334  ARG334      0.0307
    108  CG        23.7740   27.1590   23.3680 C.3   334  ARG334      0.0489
    109  CD        23.9350   27.6710   21.9230 C.3   334  ARG334      0.2205
    110  NE        25.1140   27.0610   21.3030 N.pl3 334  ARG334     -0.0865
    111  CZ        25.8150   27.6050   20.3200 C.cat 334  ARG334      0.5346
    112  NH1       25.4500   28.7850   19.8160 N.pl3 334  ARG334      0.1354
    113  NH2       26.9260   27.0010   19.8870 N.pl3 334  ARG334      0.1354
@<TRIPOS>BOND
     1    71    72    1
     2    73    72    1
     3    73    74    2
     4    72    75    1
     5    45    43   ar
     6    45    46   ar
     7    78    77    1
     8    78    79    1
     9    77    76    1
    10    76    75    1
    11    60    61    1
    12    43    41   ar
    13    46    44   ar
    14    62    61    1
    15    62    63    2
    16    61    64    1
    17    34    32    1
    18    35    33    1
    19    10     8   ar
    20    10     9   ar
    21    50    49    2
    22    41    40    1
    23    41    42   ar
    24    44    42   ar
    25    49    48    1
    26     8     6   ar
    27     9     7   ar
    28    33    32    1
    29    40    37    1
    30    64    65    1
    31    32    29    1
    32    39    38    2
    33    65    66   ar
    34    65    67   ar
    35    66    68   ar
    36     6     7   ar
    37     6     5    1
    38    67    69   ar
    39    68    70   ar
    40    29    30    1
    41    29    28    1
    42    69    70   ar
    43    48    47    1
    44    48    51    1
    45    38    47   am
    46    38    37    1
    47    30    31    2
    48    23    22    2
    49    37    36    1
    50     5     2    1
    51    28    22   am
    52    22    21    1
    53    14    13    2
    54    19    16    1
    55     2     1    1
    56     2     3    1
    57    20    21    1
    58    20    17   am
    59    21    24    1
    60    56    57    1
    61    56    53    1
    62    24    25    1
    63     3     4    2
    64     3    11   am
    65    13    12    1
    66    58    57    2
    67    57    59   am
    68    52    53    1
    69    16    17    1
    70    16    15    1
    71    17    18    2
    72    11    12    1
    73    53    54    1
    74    27    25   am
    75    25    26    2
    76    55    54    2
    77    90    88    1
    78   112   111    1
    79   113   111    1
    80   102   101    1
    81    99   101   ar
    82    99    97   ar
    83   111   110    2
    84   101   100   ar
    85    88    87    2
    86    88    89    1
    87    87    86    1
    88    97    96   ar
    89   110   109    1
    90    86    85    1
    91   100    98   ar
    92   109   108    1
    93    96    98   ar
    94    96    95    1
    95    85    84    1
    96    92    95    1
    97    92    93    1
    98    92    91    1
    99   108   107    1
   100    84    81    1
   101    93    94    2
   102   107   104    1
   103    81    80    1
   104    81    82    1
   105   106   105    2
   106   105   104    1
   107    82    83    2
   108   104   103    1
