@<TRIPOS>MOLECULE
tmp/1lc8A00.pdb
 209 198 0 0 0
SMALL
GASTEIGER

@<TRIPOS>ATOM
      1  N         33.6920   21.2230   41.0000 N.3     2  HIS2       -0.1226
      2  CA        32.4580   22.0140   41.0400 C.3     2  HIS2        0.1752
      3  C         32.6410   23.3570   40.3680 C.2     2  HIS2        0.2596
      4  O         33.7670   23.7600   40.0590 O.2     2  HIS2       -0.2718
      5  CB        32.0340   22.2810   42.4990 C.3     2  HIS2        0.0759
      6  CG        31.5950   21.0500   43.2200 C.ar    2  HIS2        0.0818
      7  ND1       30.4130   20.4130   42.9250 N.ar    2  HIS2       -0.2268
      8  CD2       32.1650   20.3450   44.2220 C.ar    2  HIS2        0.1154
      9  CE1       30.2670   19.3640   43.7110 C.ar    2  HIS2        0.1986
     10  NE2       31.3160   19.3020   44.5170 N.ar    2  HIS2       -0.2212
     11  N         31.5150   24.0380   40.1610 N.am    3  GLY3       -0.1957
     12  CA        31.5490   25.3580   39.5610 C.3     3  GLY3        0.1869
     13  C         32.0370   26.3730   40.5770 C.2     3  GLY3        0.2309
     14  O         32.3560   26.0520   41.7220 O.2     3  GLY3       -0.2863
     15  N         29.3060   30.0440   36.4000 N.3    24  SER24      -0.1202
     16  CA        29.4100   28.5970   36.7450 C.3    24  SER24       0.2020
     17  C         28.9200   28.2280   38.1470 C.2    24  SER24       0.2619
     18  O         28.8710   27.0440   38.4820 O.2    24  SER24      -0.2717
     19  CB        30.8490   28.1050   36.5940 C.3    24  SER24       0.2103
     20  OG        31.6440   28.6790   37.6100 O.3    24  SER24      -0.2182
     21  N         28.5650   29.2390   38.9360 N.am   25  ALA25      -0.1965
     22  CA        28.0220   29.0550   40.2920 C.3    25  ALA25       0.1728
     23  C         26.7280   29.8580   40.2010 C.2    25  ALA25       0.2616
     24  O         26.6400   30.7660   39.3760 O.2    25  ALA25      -0.2715
     25  CB        28.9670   29.6370   41.3560 C.3    25  ALA25       0.0334
     26  N         25.7430   29.5590   41.0460 N.am   26  ASN26      -0.1972
     27  CA        24.4360   30.1920   40.9270 C.3    26  ASN26       0.1688
     28  C         24.0630   30.9640   42.1580 C.2    26  ASN26       0.2292
     29  O         23.2790   30.4950   42.9800 O.2    26  ASN26      -0.2864
     30  CB        23.4350   29.0800   40.6810 C.3    26  ASN26       0.1181
     31  CG        23.8660   28.2040   39.5550 C.2    26  ASN26       0.2629
     32  OD1       24.1170   28.6890   38.4560 O.2    26  ASN26      -0.2716
     33  ND2       23.9600   26.9110   39.8050 N.am   26  ASN26      -0.0877
     34  N         27.6330   25.1120   55.6600 N.3    78  GLY78      -0.1210
     35  CA        27.1520   24.9970   54.3060 C.3    78  GLY78       0.1956
     36  C         26.2230   23.7830   54.2980 C.2    78  GLY78       0.2612
     37  O         26.3680   22.9140   55.1630 O.2    78  GLY78      -0.2717
     38  N         25.2690   23.7290   53.3660 N.am   79  GLU79      -0.1965
     39  CA        24.4100   22.5340   53.2450 C.3    79  GLU79       0.1733
     40  C         25.3320   21.3450   52.8670 C.2    79  GLU79       0.2617
     41  O         24.9950   20.1630   53.0750 O.2    79  GLU79      -0.2715
     42  CB        23.3430   22.7400   52.1490 C.3    79  GLU79       0.0429
     43  CG        22.3680   21.5700   52.1270 C.3    79  GLU79       0.1163
     44  CD        21.4010   21.5940   50.9780 C.2    79  GLU79       0.3649
     45  OE1       20.5820   22.5580   50.8880 O.co2  79  GLU79      -0.2457
     46  OE2       21.4470   20.6380   50.1490 O.co2  79  GLU79      -0.2457
     47  N         26.4880   21.6500   52.2750 N.am   80  THR80      -0.1951
     48  CA        27.4580   20.5790   51.9750 C.3    80  THR80       0.1897
     49  C         27.7010   19.7840   53.2970 C.2    80  THR80       0.2313
     50  O         27.6940   18.5440   53.2970 O.2    80  THR80      -0.2863
     51  CB        28.8030   21.1640   51.4770 C.3    80  THR80       0.1794
     52  OG1       28.5860   21.8240   50.2180 O.3    80  THR80      -0.2208
     53  CG2       29.8560   20.0560   51.3270 C.3    80  THR80       0.0378
     54  N         24.8500   17.4690   54.1690 N.3    83  ILE83      -0.1245
     55  CA        24.7780   16.2440   53.3210 C.3    83  ILE83       0.1561
     56  C         25.6930   15.1940   53.9370 C.2    83  ILE83       0.2260
     57  O         25.3230   14.0200   54.0380 O.2    83  ILE83      -0.2867
     58  CB        25.2380   16.5620   51.8650 C.3    83  ILE83       0.0252
     59  CG1       24.1210   17.3280   51.1410 C.3    83  ILE83       0.0019
     60  CG2       25.5980   15.2370   51.0820 C.3    83  ILE83       0.0019
     61  CD1       24.5950   18.1110   49.9120 C.3    83  ILE83       0.0001
     62  N         23.8780   16.3890   42.0330 N.3   102  PHE102     -0.1227
     63  CA        24.9940   17.0380   42.7260 C.3   102  PHE102      0.1736
     64  C         25.9650   15.9530   43.1660 C.2   102  PHE102      0.2595
     65  O         25.5450   14.9510   43.7460 O.2   102  PHE102     -0.2718
     66  CB        24.4450   17.7990   43.9460 C.3   102  PHE102      0.0547
     67  CG        25.4760   18.5880   44.6920 C.ar  102  PHE102     -0.0202
     68  CD1       26.3640   19.4100   44.0110 C.ar  102  PHE102     -0.0042
     69  CD2       25.5240   18.5540   46.0950 C.ar  102  PHE102     -0.0042
     70  CE1       27.2920   20.2010   44.7010 C.ar  102  PHE102     -0.0003
     71  CE2       26.4580   19.3480   46.7980 C.ar  102  PHE102     -0.0003
     72  CZ        27.3310   20.1640   46.0960 C.ar  102  PHE102     -0.0000
     73  N         27.2620   16.1380   42.9250 N.am  103  ALA103     -0.1980
     74  CA        28.2370   15.0820   43.2460 C.3   103  ALA103      0.1597
     75  C         28.4520   14.6970   44.6960 C.2   103  ALA103      0.2287
     76  O         28.9150   13.5790   44.9750 O.2   103  ALA103     -0.2864
     77  CB        29.5990   15.4430   42.6560 C.3   103  ALA103      0.0319
     78  N         26.4190   13.9270   47.1630 N.3   105  TYR105     -0.1241
     79  CA        25.6580   12.8160   47.7970 C.3   105  TYR105      0.1605
     80  C         26.5060   11.5440   47.6570 C.2   105  TYR105      0.2264
     81  O         26.7350   10.8240   48.6300 O.2   105  TYR105     -0.2867
     82  CB        24.3170   12.5390   47.0910 C.3   105  TYR105      0.0534
     83  CG        23.4810   13.7610   46.7430 C.ar  105  TYR105     -0.0201
     84  CD1       22.8120   13.8200   45.5200 C.ar  105  TYR105     -0.0009
     85  CD2       23.3640   14.8490   47.6180 C.ar  105  TYR105     -0.0009
     86  CE1       22.0590   14.9440   45.1540 C.ar  105  TYR105      0.0417
     87  CE2       22.6070   15.9900   47.2640 C.ar  105  TYR105      0.0417
     88  CZ        21.9720   16.0250   46.0410 C.ar  105  TYR105      0.1957
     89  OH        21.2750   17.1600   45.6890 O.3   105  TYR105     -0.2866
     90  N         16.8120   15.5870   44.5350 N.3   147  CYS147     -0.1235
     91  CA        17.1780   17.0040   44.5780 C.3   147  CYS147      0.1677
     92  C         15.9890   17.7360   43.9410 C.2   147  CYS147      0.2270
     93  O         15.6370   17.4640   42.7970 O.2   147  CYS147     -0.2867
     94  CB        18.4470   17.2110   43.7740 C.3   147  CYS147      0.0956
     95  SG        19.1900   18.8460   44.1050 S.3   147  CYS147     -0.0801
     96  N         19.9840   19.6140   40.3870 N.3   151  ASN151     -0.1240
     97  CA        21.2480   20.2190   39.9340 C.3   151  ASN151      0.1653
     98  C         21.7080   19.0730   38.9980 C.2   151  ASN151      0.2266
     99  O         21.9320   17.9780   39.4840 O.2   151  ASN151     -0.2867
    100  CB        22.2160   20.3330   41.1300 C.3   151  ASN151      0.1155
    101  CG        23.6560   20.6630   40.7110 C.2   151  ASN151      0.2627
    102  OD1       24.0070   20.5130   39.5480 O.2   151  ASN151     -0.2716
    103  ND2       24.4860   21.1060   41.6750 N.am  151  ASN151     -0.0877
    104  N         16.8880   17.3340   48.7740 N.3   179  ASP179     -0.1239
    105  CA        17.8250   18.4380   48.7550 C.3   179  ASP179      0.1674
    106  C         17.0790   19.6490   48.1820 C.2   179  ASP179      0.2266
    107  O         16.8820   19.7550   46.9740 O.2   179  ASP179     -0.2867
    108  CB        19.0310   18.1090   47.8850 C.3   179  ASP179      0.1410
    109  CG        20.0760   19.2130   47.9020 C.2   179  ASP179      0.3668
    110  OD1       19.7740   20.3250   48.4000 O.co2 179  ASP179     -0.2456
    111  OD2       21.1880   18.9650   47.3950 O.co2 179  ASP179     -0.2456
    112  N         18.1090   22.7650   48.2660 N.3   181  ALA181     -0.1231
    113  CA        19.0680   23.8650   48.1710 C.3   181  ALA181      0.1694
    114  C         18.6040   25.0500   47.3390 C.2   181  ALA181      0.2592
    115  O         18.9580   26.2010   47.6140 O.2   181  ALA181     -0.2718
    116  CB        20.3960   23.3430   47.5740 C.3   181  ALA181      0.0304
    117  N         17.8610   24.7860   46.2770 N.am  182  PHE182     -0.1976
    118  CA        17.4280   25.8880   45.4210 C.3   182  PHE182      0.1639
    119  C         15.9300   26.1640   45.4610 C.2   182  PHE182      0.2290
    120  O         15.4200   26.9070   44.6280 O.2   182  PHE182     -0.2864
    121  CB        17.8050   25.5690   43.9710 C.3   182  PHE182      0.0560
    122  CG        19.2550   25.7120   43.6720 C.ar  182  PHE182     -0.0200
    123  CD1       20.0760   24.6040   43.6240 C.ar  182  PHE182     -0.0042
    124  CD2       19.7980   26.9670   43.4090 C.ar  182  PHE182     -0.0042
    125  CE1       21.4200   24.7340   43.3180 C.ar  182  PHE182     -0.0003
    126  CE2       21.1510   27.1170   43.1030 C.ar  182  PHE182     -0.0003
    127  CZ        21.9720   25.9930   43.0550 C.ar  182  PHE182     -0.0000
    128  N         19.7980   25.3840   52.1440 N.3   207  SER207     -0.1217
    129  CA        21.0150   26.1460   52.0740 C.3   207  SER207      0.1889
    130  C         20.6660   27.6220   52.0590 C.2   207  SER207      0.2288
    131  O         19.6380   28.0180   51.4950 O.2   207  SER207     -0.2866
    132  CB        21.7960   25.8130   50.7970 C.3   207  SER207      0.2089
    133  OG        22.8850   26.7210   50.6550 O.3   207  SER207     -0.2183
    134  N         23.2140   29.7670   51.1610 N.3   209  THR209     -0.1203
    135  CA        24.2520   30.4270   50.3790 C.3   209  THR209      0.1994
    136  C         23.8830   30.9860   49.0100 C.2   209  THR209      0.2617
    137  O         24.3930   32.0520   48.6240 O.2   209  THR209     -0.2717
    138  CB        25.5130   29.5540   50.2640 C.3   209  THR209      0.1784
    139  OG1       25.1810   28.3600   49.5610 O.3   209  THR209     -0.2211
    140  CG2       26.0720   29.2220   51.6920 C.3   209  THR209      0.0376
    141  N         23.0000   30.3270   48.2810 N.am  210  LYS210     -0.1979
    142  CA        22.6340   30.8640   46.9720 C.3   210  LYS210      0.1596
    143  C         21.5880   31.9780   47.0720 C.2   210  LYS210      0.2287
    144  O         21.7500   33.0650   46.4930 O.2   210  LYS210     -0.2864
    145  CB        22.1090   29.7520   46.0640 C.3   210  LYS210      0.0298
    146  CG        23.1000   28.5890   45.8960 C.3   210  LYS210      0.0038
    147  CD        22.6180   27.3920   46.7330 C.3   210  LYS210      0.0206
    148  CE        23.7040   26.3040   46.8850 C.3   210  LYS210      0.1093
    149  NZ        24.4980   26.1280   45.6380 N.3   210  LYS210     -0.1314
    150  N         27.7660   32.3400   49.9200 N.3   215  PRO215     -0.2116
    151  CA        28.4540   31.0470   49.7380 C.3   215  PRO215      0.1372
    152  C         29.8560   31.0440   50.3420 C.2   215  PRO215      0.2244
    153  O         30.3920   29.9900   50.6830 O.2   215  PRO215     -0.2868
    154  CB        28.4700   30.8770   48.2200 C.3   215  PRO215      0.0268
    155  CG        28.5950   32.2930   47.7270 C.3   215  PRO215      0.0207
    156  CD        27.5380   32.9750   48.6080 C.3   215  PRO215      0.0892
    157  N         29.4510   30.1090   54.2390 N.3   218  ARG218     -0.1231
    158  CA        29.0590   28.7010   54.4520 C.3   218  ARG218      0.1694
    159  C         27.9240   28.4980   55.4690 C.2   218  ARG218      0.2591
    160  O         28.1570   28.5310   56.6670 O.2   218  ARG218     -0.2718
    161  CB        30.2830   27.8760   54.9010 C.3   218  ARG218      0.0321
    162  CG        31.6480   28.1770   54.2020 C.3   218  ARG218      0.0489
    163  CD        31.6090   27.8730   52.6930 C.3   218  ARG218      0.2205
    164  NE        31.1730   26.4930   52.4180 N.pl3 218  ARG218     -0.0865
    165  CZ        30.0740   26.1910   51.7250 C.cat 218  ARG218      0.5346
    166  NH1       29.3250   27.1600   51.2290 N.pl3 218  ARG218      0.1354
    167  NH2       29.6960   24.9230   51.5450 N.pl3 218  ARG218      0.1354
    168  N         26.6990   28.2920   55.0000 N.am  219  LEU219     -0.1980
    169  CA        25.6290   28.0430   55.9480 C.3   219  LEU219      0.1596
    170  C         24.4980   27.2860   55.2930 C.2   219  LEU219      0.2287
    171  O         23.9700   27.6900   54.2490 O.2   219  LEU219     -0.2864
    172  CB        25.0950   29.3430   56.5550 C.3   219  LEU219      0.0297
    173  CG        24.0050   29.1240   57.6190 C.3   219  LEU219      0.0022
    174  CD1       24.6360   28.4280   58.8600 C.3   219  LEU219      0.0001
    175  CD2       23.3950   30.4960   58.0560 C.3   219  LEU219      0.0001
    176  N         29.6760   26.4020   33.5780 N.3   317  ARG317     -0.1245
    177  CA        29.8480   25.0710   34.1150 C.3   317  ARG317      0.1563
    178  C         29.7520   24.0190   33.0110 C.2   317  ARG317      0.2260
    179  O         28.8000   24.0250   32.2100 O.2   317  ARG317     -0.2867
    180  CB        28.7700   24.8120   35.1790 C.3   317  ARG317      0.0307
    181  CG        28.7780   23.3840   35.7700 C.3   317  ARG317      0.0489
    182  CD        29.9070   23.2360   36.7990 C.3   317  ARG317      0.2205
    183  NE        29.6570   22.2390   37.8580 N.pl3 317  ARG317     -0.0865
    184  CZ        29.9580   20.9430   37.7980 C.cat 317  ARG317      0.5346
    185  NH1       30.5240   20.4190   36.7080 N.pl3 317  ARG317      0.1354
    186  NH2       29.7480   20.1680   38.8580 N.pl3 317  ARG317      0.1354
    187  N         29.2100   15.0510   35.2510 N.3   322  TYR322     -0.1241
    188  CA        28.0360   14.5150   35.9160 C.3   322  TYR322      0.1605
    189  C         27.7370   13.1640   35.2710 C.2   322  TYR322      0.2264
    190  O         27.6830   13.0530   34.0460 O.2   322  TYR322     -0.2867
    191  CB        26.7840   15.3570   35.6540 C.3   322  TYR322      0.0534
    192  CG        26.7110   16.6340   36.4410 C.ar  322  TYR322     -0.0201
    193  CD1       25.9460   16.7130   37.6000 C.ar  322  TYR322     -0.0009
    194  CD2       27.3830   17.7760   36.0040 C.ar  322  TYR322     -0.0009
    195  CE1       25.8420   17.9180   38.3150 C.ar  322  TYR322      0.0417
    196  CE2       27.2890   18.9820   36.7110 C.ar  322  TYR322      0.0417
    197  CZ        26.5090   19.0410   37.8670 C.ar  322  TYR322      0.1957
    198  OH        26.3620   20.2410   38.5610 O.3   322  TYR322     -0.2866
    199  N         26.0710   24.3620   32.0950 N.3   331  ARG331     -0.1245
    200  CA        25.0430   25.0150   32.8950 C.3   331  ARG331      0.1563
    201  C         25.4600   26.4640   33.0830 C.2   331  ARG331      0.2260
    202  O         26.6460   26.7520   33.2790 O.2   331  ARG331     -0.2867
    203  CB        24.9030   24.3610   34.2750 C.3   331  ARG331      0.0307
    204  CG        23.7490   24.9180   35.1410 C.3   331  ARG331      0.0489
    205  CD        23.8810   24.4340   36.6100 C.3   331  ARG331      0.2205
    206  NE        25.0960   24.9690   37.2130 N.pl3 331  ARG331     -0.0865
    207  CZ        25.7900   24.3780   38.1740 C.cat 331  ARG331      0.5346
    208  NH1       25.3880   23.2100   38.6800 N.pl3 331  ARG331      0.1354
    209  NH2       26.9510   24.9070   38.5700 N.pl3 331  ARG331      0.1354
@<TRIPOS>BOND
     1   199   200    1
     2   179   178    2
     3   200   201    1
     4   200   203    1
     5   178   177    1
     6   201   202    2
     7   176   177    1
     8   190   189    2
     9   177   180    1
    10   203   204    1
    11   204   205    1
    12   180   181    1
    13   187   188    1
    14   189   188    1
    15   191   188    1
    16   191   192    1
    17   181   182    1
    18   194   192   ar
    19   194   196   ar
    20    15    16    1
    21   192   193   ar
    22    19    16    1
    23    19    20    1
    24   205   206    1
    25   185   184    1
    26   196   197   ar
    27    16    17    1
    28   182   183    1
    29   206   207    2
    30   193   195   ar
    31   184   183    2
    32   184   186    1
    33   197   195   ar
    34   197   198    1
    35    17    18    2
    36    17    21   am
    37   207   209    1
    38   207   208    1
    39    32    31    2
    40    21    22    1
    41    98    99    2
    42    98    97    1
    43    24    23    2
    44   102   101    2
    45    31    33   am
    46    31    30    1
    47    12    11    1
    48    12    13    1
    49    97    96    1
    50    97   100    1
    51     4     3    2
    52    11     3   am
    53    23    22    1
    54    23    26   am
    55    22    25    1
    56     3     2    1
    57    13    14    2
    58    30    27    1
    59   101   100    1
    60   101   103   am
    61    27    26    1
    62    27    28    1
    63     1     2    1
    64     2     5    1
    65    62    63    1
    66    28    29    2
    67     5     6    1
    68    77    74    1
    69    63    64    1
    70    63    66    1
    71    93    92    2
    72     7     6   ar
    73     7     9   ar
    74    73    64   am
    75    73    74    1
    76   127   126   ar
    77   127   125   ar
    78   126   124   ar
    79    64    65    2
    80     6     8   ar
    81    74    75    1
    82   125   123   ar
    83   124   122   ar
    84   123   122   ar
    85   122   121    1
    86     9    10   ar
    87    94    95    1
    88    94    91    1
    89    92    91    1
    90    66    67    1
    91   121   118    1
    92    68    67   ar
    93    68    70   ar
    94     8    10   ar
    95    90    91    1
    96   120   119    2
    97    67    69   ar
    98    75    76    2
    99    70    72   ar
   100    86    84   ar
   101    86    88   ar
   102   118   119    1
   103   118   117    1
   104    84    83   ar
   105   149   148    1
   106    89    88    1
   107   146   145    1
   108   146   147    1
   109    88    87   ar
   110   145   142    1
   111    69    71   ar
   112    72    71   ar
   113   117   114   am
   114   144   143    2
   115   147   148    1
   116    83    82    1
   117    83    85   ar
   118   142   143    1
   119   142   141    1
   120   107   106    2
   121    82    79    1
   122    78    79    1
   123    87    85   ar
   124   114   115    2
   125   114   113    1
   126   111   109   ar
   127   116   113    1
   128    80    79    1
   129    80    81    2
   130   155   154    1
   131   155   156    1
   132   108   109    1
   133   108   105    1
   134   109   110   ar
   135   113   112    1
   136   106   105    1
   137   154   151    1
   138   141   136   am
   139   156   150    1
   140   137   136    2
   141   105   104    1
   142   136   135    1
   143   139   138    1
   144   151   150    1
   145   151   152    1
   146    61    59    1
   147    46    44   ar
   148    52    51    1
   149   138   135    1
   150   138   140    1
   151   152   153    2
   152   135   134    1
   153   133   132    1
   154   132   129    1
   155    45    44   ar
   156    44    43    1
   157    60    58    1
   158    59    58    1
   159   166   165    1
   160    53    51    1
   161    51    48    1
   162   131   130    2
   163   167   165    1
   164   165   164    2
   165    58    55    1
   166    48    47    1
   167    48    49    1
   168   130   129    1
   169   129   128    1
   170    43    42    1
   171    42    39    1
   172    47    40   am
   173   164   163    1
   174   163   162    1
   175    40    41    2
   176    40    39    1
   177    39    38    1
   178    49    50    2
   179    55    56    1
   180    55    54    1
   181    38    36   am
   182    56    57    2
   183   162   161    1
   184   157   158    1
   185   171   170    2
   186    36    35    1
   187    36    37    2
   188    35    34    1
   189   158   161    1
   190   158   159    1
   191   168   159   am
   192   168   169    1
   193   170   169    1
   194   159   160    2
   195   169   172    1
   196   172   173    1
   197   173   175    1
   198   173   174    1
