@<TRIPOS>MOLECULE
tmp/1lcaA00.pdb
 160 158 0 0 0
SMALL
GASTEIGER

@<TRIPOS>ATOM
      1  N         21.4600   44.1230  -63.2690 N.3    22  ASP22      -0.1225
      2  CA        20.7730   45.1420  -62.4970 C.3    22  ASP22       0.1805
      3  C         21.3380   46.5730  -62.8000 C.2    22  ASP22       0.2597
      4  O         22.2890   46.7540  -63.5790 O.2    22  ASP22      -0.2718
      5  CB        20.9570   44.7560  -61.0130 C.3    22  ASP22       0.1424
      6  CG        22.3060   45.2340  -60.4260 C.2    22  ASP22       0.3668
      7  OD1       23.3610   44.9330  -61.0190 O.co2  22  ASP22      -0.2456
      8  OD2       22.2790   45.9500  -59.3990 O.co2  22  ASP22      -0.2456
      9  N         20.8390   47.5460  -61.9810 N.am   23  ARG23      -0.1979
     10  CA        21.1850   48.9780  -62.0060 C.3    23  ARG23       0.1597
     11  C         22.6800   49.2460  -61.7210 C.2    23  ARG23       0.2287
     12  O         23.1350   50.3620  -61.9870 O.2    23  ARG23      -0.2864
     13  CB        20.2410   49.7510  -60.9910 C.3    23  ARG23       0.0334
     14  CG        20.3880   49.4660  -59.4650 C.3    23  ARG23       0.0492
     15  CD        19.5460   50.5060  -58.6700 C.3    23  ARG23       0.2205
     16  NE        20.1440   51.0750  -57.4490 N.pl3  23  ARG23      -0.0865
     17  CZ        19.6610   50.8940  -56.2020 C.cat  23  ARG23       0.5346
     18  NH1       18.5790   50.0850  -55.9890 N.pl3  23  ARG23       0.1354
     19  NH2       20.2860   51.4980  -55.1650 N.pl3  23  ARG23       0.1354
     20  N         18.4150   53.7970  -42.7140 N.3    82  TRP82      -0.1241
     21  CA        18.2880   54.8470  -43.7340 C.3    82  TRP82       0.1605
     22  C         19.4270   55.8920  -43.8540 C.2    82  TRP82       0.2264
     23  O         19.3300   56.8650  -44.5980 O.2    82  TRP82      -0.2867
     24  CB        16.8810   55.4920  -43.4790 C.3    82  TRP82       0.0550
     25  CG        15.6740   54.6230  -43.8540 C.ar   82  TRP82       0.0003
     26  CD1       15.1860   53.6890  -42.9990 C.ar   82  TRP82       0.0946
     27  CD2       15.0740   54.5900  -45.0810 C.ar   82  TRP82       0.0152
     28  NE1       14.2950   53.0400  -43.6960 N.ar   82  TRP82      -0.2442
     29  CE2       14.1920   53.5370  -44.9300 C.ar   82  TRP82       0.0810
     30  CE3       15.1510   55.2610  -46.2930 C.ar   82  TRP82       0.0012
     31  CZ2       13.3800   53.1400  -45.9870 C.ar   82  TRP82       0.0191
     32  CZ3       14.3380   54.8630  -47.3600 C.ar   82  TRP82       0.0001
     33  CH2       13.4660   53.8100  -47.2070 C.ar   82  TRP82       0.0015
     34  N          8.5470   56.6010  -47.3750 N.3   146  TYR146     -0.1241
     35  CA         7.2160   56.1400  -47.1400 C.3   146  TYR146      0.1605
     36  C          6.5050   56.9390  -46.0260 C.2   146  TYR146      0.2264
     37  O          5.2840   57.0120  -46.0770 O.2   146  TYR146     -0.2867
     38  CB         7.3130   54.6420  -46.8490 C.3   146  TYR146      0.0534
     39  CG         8.0020   53.7460  -47.8680 C.ar  146  TYR146     -0.0201
     40  CD1        7.4210   53.2330  -49.0300 C.ar  146  TYR146     -0.0009
     41  CD2        9.2880   53.4300  -47.5320 C.ar  146  TYR146     -0.0009
     42  CE1        8.1780   52.3860  -49.8500 C.ar  146  TYR146      0.0417
     43  CE2       10.0310   52.6070  -48.3410 C.ar  146  TYR146      0.0417
     44  CZ         9.4970   52.0940  -49.4930 C.ar  146  TYR146      0.1957
     45  OH        10.4070   51.3780  -50.2620 O.3   146  TYR146     -0.2866
     46  N         15.6130   56.5330  -53.9410 N.3   195  LEU195     -0.1231
     47  CA        15.1340   55.1400  -54.0830 C.3   195  LEU195      0.1678
     48  C         13.6630   55.3670  -54.1950 C.2   195  LEU195      0.2434
     49  O         13.0490   55.7980  -53.2090 O.2   195  LEU195     -0.2733
     50  CB        15.2640   54.1650  -52.8750 C.3   195  LEU195      0.0284
     51  CG        14.6230   52.7880  -53.1520 C.3   195  LEU195      0.0019
     52  CD1       15.3990   52.1410  -54.2900 C.3   195  LEU195      0.0001
     53  CD2       14.5820   51.8970  -51.9160 C.3   195  LEU195      0.0001
     54  N         13.0870   55.1170  -55.3840 N.am  196  PRO196     -0.2729
     55  CA        11.6540   54.9930  -55.5670 C.3   196  PRO196      0.1401
     56  C         11.0270   54.0340  -54.5550 C.2   196  PRO196      0.2269
     57  O         11.7220   53.1790  -54.0260 O.2   196  PRO196     -0.2865
     58  CB        11.5790   54.5820  -57.0050 C.3   196  PRO196      0.0296
     59  CG        12.7500   55.2120  -57.6850 C.3   196  PRO196      0.0237
     60  CD        13.8080   54.9450  -56.6500 C.3   196  PRO196      0.0939
     61  N          9.8830   50.8590  -53.0630 N.3   198  CYS198     -0.1221
     62  CA         9.9300   49.5280  -53.6370 C.3   198  CYS198      0.1808
     63  C          8.5920   48.9200  -53.4320 C.2   198  CYS198      0.2601
     64  O          7.9730   48.2950  -54.2880 O.2   198  CYS198     -0.2717
     65  CB        10.9140   48.6430  -52.9660 C.3   198  CYS198      0.0970
     66  SG        12.6080   48.9810  -53.4900 S.3   198  CYS198     -0.0800
     67  N          8.0210   49.1750  -52.2880 N.am  199  HIS199     -0.1975
     68  CA         6.8050   48.4430  -51.9810 C.3   199  HIS199      0.1656
     69  C          5.8050   49.5130  -52.3140 C.2   199  HIS199      0.2291
     70  O          5.4130   50.3480  -51.4830 O.2   199  HIS199     -0.2864
     71  CB         6.7650   48.0910  -50.5250 C.3   199  HIS199      0.0771
     72  CG         8.1590   48.0360  -49.9990 C.ar  199  HIS199      0.0820
     73  ND1        8.8230   49.0950  -49.5370 N.ar  199  HIS199     -0.2267
     74  CD2        8.9860   46.9540  -50.0980 C.ar  199  HIS199      0.1154
     75  CE1       10.0720   48.6790  -49.3700 C.ar  199  HIS199      0.1986
     76  NE2       10.1590   47.4020  -49.7120 N.ar  199  HIS199     -0.2212
     77  N          4.9590   45.0150  -54.9040 N.3   217  GLN217     -0.1231
     78  CA         6.2890   45.4880  -54.6560 C.3   217  GLN217      0.1698
     79  C          7.0470   45.4870  -55.9750 C.2   217  GLN217      0.2592
     80  O          7.3810   44.3790  -56.3940 O.2   217  GLN217     -0.2718
     81  CB         6.8730   44.5370  -53.5920 C.3   217  GLN217      0.0381
     82  CG         8.2600   44.9190  -53.0510 C.3   217  GLN217      0.0905
     83  CD         8.8200   43.9740  -51.9870 C.2   217  GLN217      0.2608
     84  OE1        8.3130   43.8660  -50.8700 O.2   217  GLN217     -0.2717
     85  NE2        9.9160   43.2740  -52.2140 N.am  217  GLN217     -0.0878
     86  N          7.3410   46.5910  -56.6940 N.am  218  ARG218     -0.1966
     87  CA         8.1350   46.5260  -57.9440 C.3   218  ARG218      0.1729
     88  C          9.3920   45.6330  -57.9790 C.2   218  ARG218      0.2617
     89  O          9.6230   45.0020  -59.0050 O.2   218  ARG218     -0.2715
     90  CB         8.5830   47.9360  -58.3830 C.3   218  ARG218      0.0348
     91  CG         9.1160   48.8030  -57.2630 C.3   218  ARG218      0.0492
     92  CD         9.2350   50.2600  -57.5860 C.3   218  ARG218      0.2205
     93  NE        10.4430   50.4920  -58.3290 N.pl3 218  ARG218     -0.0865
     94  CZ        11.6440   50.6810  -57.7520 C.cat 218  ARG218      0.5346
     95  NH1       11.7770   50.8980  -56.4380 N.pl3 218  ARG218      0.1354
     96  NH2       12.7220   50.7320  -58.5330 N.pl3 218  ARG218      0.1354
     97  N         10.2310   45.5260  -56.9380 N.am  219  SER219     -0.1936
     98  CA        11.3830   44.6300  -56.8760 C.3   219  SER219      0.2055
     99  C         11.7250   44.0720  -55.4620 C.2   219  SER219      0.2643
    100  O         11.2750   44.5480  -54.3980 O.2   219  SER219     -0.2714
    101  CB        12.5660   45.3440  -57.4490 C.3   219  SER219      0.2130
    102  OG        12.7490   46.5880  -56.8200 O.3   219  SER219     -0.2179
    103  N         12.4450   42.9500  -55.4110 N.am  220  ALA220     -0.1963
    104  CA        12.7220   42.2450  -54.1770 C.3   220  ALA220      0.1728
    105  C         14.1860   41.9070  -54.0990 C.2   220  ALA220      0.2616
    106  O         14.6560   41.7480  -55.2090 O.2   220  ALA220     -0.2715
    107  CB        11.9110   40.9890  -54.2010 C.3   220  ALA220      0.0334
    108  N         15.0030   41.8980  -53.0220 N.am  221  ASP221     -0.1971
    109  CA        16.3200   41.2630  -53.0060 C.3   221  ASP221      0.1709
    110  C         15.9920   39.9960  -52.2680 C.2   221  ASP221      0.2293
    111  O         15.8830   40.1020  -51.0470 O.2   221  ASP221     -0.2864
    112  CB        17.3500   42.0230  -52.1750 C.3   221  ASP221      0.1436
    113  CG        18.7340   41.3890  -51.8880 C.2   221  ASP221      0.3671
    114  OD1       18.9740   40.1900  -52.0890 O.co2 221  ASP221     -0.2456
    115  OD2       19.6260   42.1330  -51.4690 O.co2 221  ASP221     -0.2456
    116  N         16.3580   41.8240  -48.4910 N.3   225  GLY225     -0.1225
    117  CA        15.2010   42.6780  -48.6980 C.3   225  GLY225      0.1811
    118  C         14.0270   41.8990  -48.1970 C.2   225  GLY225      0.2280
    119  O         13.6130   42.1220  -47.0600 O.2   225  GLY225     -0.2866
    120  N         13.0450   41.0800  -44.3960 N.3   228  PHE228     -0.1227
    121  CA        12.5630   42.2310  -43.6470 C.3   228  PHE228      0.1736
    122  C         11.2780   42.7740  -44.2720 C.2   228  PHE228      0.2595
    123  O         10.4810   43.3370  -43.5520 O.2   228  PHE228     -0.2718
    124  CB        13.5530   43.3960  -43.6150 C.3   228  PHE228      0.0547
    125  CG        14.8430   43.2650  -42.8420 C.ar  228  PHE228     -0.0202
    126  CD1       15.6330   42.1160  -42.9200 C.ar  228  PHE228     -0.0042
    127  CD2       15.2740   44.3370  -42.0390 C.ar  228  PHE228     -0.0042
    128  CE1       16.8470   42.0500  -42.1950 C.ar  228  PHE228     -0.0003
    129  CE2       16.4770   44.2760  -41.3120 C.ar  228  PHE228     -0.0003
    130  CZ        17.2690   43.1240  -41.3920 C.ar  228  PHE228     -0.0000
    131  N         10.9370   42.6730  -45.5380 N.am  229  ASN229     -0.1974
    132  CA         9.7370   43.2640  -45.9940 C.3   229  ASN229      0.1688
    133  C          8.5860   42.4050  -45.5910 C.2   229  ASN229      0.2292
    134  O          7.6320   42.9800  -45.1080 O.2   229  ASN229     -0.2864
    135  CB         9.8940   43.4250  -47.4350 C.3   229  ASN229      0.1181
    136  CG        10.8930   44.5180  -47.7290 C.2   229  ASN229      0.2629
    137  OD1       11.6500   44.4780  -48.6990 O.2   229  ASN229     -0.2716
    138  ND2       10.9210   45.5900  -46.9600 N.am  229  ASN229     -0.0877
    139  N         14.1990   38.8820  -57.3230 N.3   259  HIS259     -0.1241
    140  CA        15.4430   38.4050  -57.8330 C.3   259  HIS259      0.1621
    141  C         16.3460   38.2090  -56.6740 C.2   259  HIS259      0.2264
    142  O         16.1940   38.8510  -55.6290 O.2   259  HIS259     -0.2867
    143  CB        16.0640   39.3890  -58.7930 C.3   259  HIS259      0.0745
    144  CG        16.1110   40.7850  -58.2720 C.ar  259  HIS259      0.0817
    145  ND1       15.0930   41.5960  -58.2270 N.ar  259  HIS259     -0.2268
    146  CD2       17.2070   41.4220  -57.7950 C.ar  259  HIS259      0.1154
    147  CE1       15.5260   42.7160  -57.7440 C.ar  259  HIS259      0.1986
    148  NE2       16.7940   42.6070  -57.4850 N.ar  259  HIS259     -0.2212
    149  N         20.2880   38.1380  -55.8390 N.3   261  TYR261     -0.1241
    150  CA        21.6030   38.5560  -56.1690 C.3   261  TYR261      0.1605
    151  C         22.5740   37.4810  -56.4490 C.2   261  TYR261      0.2264
    152  O         22.7190   36.6220  -55.6000 O.2   261  TYR261     -0.2867
    153  CB        22.1120   39.3790  -55.0410 C.3   261  TYR261      0.0534
    154  CG        21.7920   40.8190  -55.3070 C.ar  261  TYR261     -0.0201
    155  CD1       22.6220   41.4820  -56.1710 C.ar  261  TYR261     -0.0009
    156  CD2       20.6710   41.4370  -54.7560 C.ar  261  TYR261     -0.0009
    157  CE1       22.3330   42.7890  -56.5010 C.ar  261  TYR261      0.0417
    158  CE2       20.3560   42.7790  -55.0900 C.ar  261  TYR261      0.0417
    159  CZ        21.2090   43.4630  -55.9770 C.ar  261  TYR261      0.1957
    160  OH        21.0230   44.8060  -56.3260 O.3   261  TYR261     -0.2866
@<TRIPOS>BOND
     1     4     3    2
     2     1     2    1
     3     3     2    1
     4     3     9   am
     5     2     5    1
     6    10     9    1
     7    10    11    1
     8    10    13    1
     9    12    11    2
    10     7     6   ar
    11     5     6    1
    12    13    14    1
    13     6     8   ar
    14    14    15    1
    15    89    88    2
    16   143   144    1
    17   143   140    1
    18    15    16    1
    19    96    94    1
    20    90    87    1
    21    90    91    1
    22    93    94    2
    23    93    92    1
    24   144   145   ar
    25   144   146   ar
    26   145   147   ar
    27    88    87    1
    28    88    97   am
    29    87    86    1
    30   140   139    1
    31   140   141    1
    32   146   148   ar
    33    94    95    1
    34   147   148   ar
    35    59    58    1
    36    59    60    1
    37    92    91    1
    38   101    98    1
    39   101   102    1
    40    16    17    2
    41    58    55    1
    42    97    98    1
    43    98    99    1
    44    86    79   am
    45   141   142    2
    46    60    54    1
    47   157   155   ar
    48   157   159   ar
    49   151   150    1
    50   151   152    2
    51    80    79    2
    52   160   159    1
    53    17    18    1
    54    17    19    1
    55   155   154   ar
    56   150   149    1
    57   150   153    1
    58   159   158   ar
    59    79    78    1
    60    55    54    1
    61    55    56    1
    62    99   103   am
    63    99   100    2
    64   103   104    1
    65    54    48   am
    66   154   153    1
    67   154   156   ar
    68   106   105    2
    69   158   156   ar
    70    77    78    1
    71    78    81    1
    72    56    57    2
    73    52    51    1
    74    64    63    2
    75   107   104    1
    76    48    47    1
    77    48    49    2
    78   104   105    1
    79   105   108   am
    80    47    46    1
    81    47    50    1
    82    62    63    1
    83    62    61    1
    84    62    65    1
    85    81    82    1
    86    66    65    1
    87    63    67   am
    88    51    50    1
    89    51    53    1
    90    82    83    1
    91   108   109    1
    92   109   110    1
    93   109   112    1
    94    69    68    1
    95    69    70    2
    96    67    68    1
    97   110   111    2
    98    85    83   am
    99   112   113    1
   100   114   113   ar
   101    83    84    2
   102    68    71    1
   103   113   115   ar
   104    71    72    1
   105    45    44    1
   106    74    72   ar
   107    74    76   ar
   108    72    73   ar
   109    42    44   ar
   110    42    40   ar
   111    76    75   ar
   112    73    75   ar
   113    44    43   ar
   114    40    39   ar
   115   137   136    2
   116   117   116    1
   117   117   118    1
   118    43    41   ar
   119   118   119    2
   120    39    41   ar
   121    39    38    1
   122   136   135    1
   123   136   138   am
   124   135   132    1
   125    34    35    1
   126    32    33   ar
   127    32    30   ar
   128    33    31   ar
   129    35    38    1
   130    35    36    1
   131    30    27   ar
   132    37    36    2
   133   132   133    1
   134   132   131    1
   135    31    29   ar
   136   133   134    2
   137   131   122   am
   138    27    29   ar
   139    27    25   ar
   140    29    28   ar
   141    23    22    2
   142   120   121    1
   143   122   121    1
   144   122   123    2
   145    25    24    1
   146    25    26   ar
   147    22    21    1
   148    21    24    1
   149    21    20    1
   150    28    26   ar
   151   121   124    1
   152   124   125    1
   153   126   125   ar
   154   126   128   ar
   155   125   127   ar
   156   128   130   ar
   157   127   129   ar
   158   130   129   ar
