@<TRIPOS>MOLECULE
tmp/1lcaA01.pdb
 237 232 0 0 0
SMALL
GASTEIGER

@<TRIPOS>ATOM
      1  N         20.8390   47.5460  -61.9810 N.3    23  ARG23      -0.1245
      2  CA        21.1850   48.9780  -62.0060 C.3    23  ARG23       0.1563
      3  C         22.6800   49.2460  -61.7210 C.2    23  ARG23       0.2260
      4  O         23.1350   50.3620  -61.9870 O.2    23  ARG23      -0.2867
      5  CB        20.2410   49.7510  -60.9910 C.3    23  ARG23       0.0307
      6  CG        20.3880   49.4660  -59.4650 C.3    23  ARG23       0.0489
      7  CD        19.5460   50.5060  -58.6700 C.3    23  ARG23       0.2205
      8  NE        20.1440   51.0750  -57.4490 N.pl3  23  ARG23      -0.0865
      9  CZ        19.6610   50.8940  -56.2020 C.cat  23  ARG23       0.5346
     10  NH1       18.5790   50.0850  -55.9890 N.pl3  23  ARG23       0.1354
     11  NH2       20.2860   51.4980  -55.1650 N.pl3  23  ARG23       0.1354
     12  N         17.0350   32.1180  -40.4710 N.3    50  LYS50      -0.1245
     13  CA        18.0440   33.1450  -40.6150 C.3    50  LYS50       0.1561
     14  C         17.4830   34.1100  -39.5770 C.2    50  LYS50       0.2260
     15  O         16.3160   34.4590  -39.6550 O.2    50  LYS50      -0.2867
     16  CB        18.0350   33.7640  -42.0630 C.3    50  LYS50       0.0271
     17  CG        18.9170   34.9840  -42.3810 C.3    50  LYS50       0.0035
     18  CD        18.9510   35.3690  -43.8660 C.3    50  LYS50       0.0206
     19  CE        18.0820   36.4950  -44.4740 C.3    50  LYS50       0.1093
     20  NZ        18.5730   37.8770  -44.4940 N.3    50  LYS50      -0.1314
     21  N         14.6230   46.1970  -35.1520 N.3    56  LEU56      -0.1231
     22  CA        15.0470   47.1180  -36.1270 C.3    56  LEU56       0.1693
     23  C         13.9600   47.5150  -37.0180 C.2    56  LEU56       0.2591
     24  O         13.7780   48.6830  -37.2920 O.2    56  LEU56      -0.2718
     25  CB        16.1390   46.5390  -36.9390 C.3    56  LEU56       0.0284
     26  CG        17.1900   47.5700  -37.2380 C.3    56  LEU56       0.0019
     27  CD1       17.6310   48.1520  -35.9000 C.3    56  LEU56       0.0001
     28  CD2       18.4280   46.9670  -37.9300 C.3    56  LEU56       0.0001
     29  N         13.1790   46.5450  -37.4260 N.am   57  ILE57      -0.1980
     30  CA        12.0890   46.7610  -38.3750 C.3    57  ILE57       0.1595
     31  C         10.8250   47.3770  -37.7590 C.2    57  ILE57       0.2287
     32  O         10.0260   48.0030  -38.4690 O.2    57  ILE57      -0.2864
     33  CB        11.8960   45.3420  -39.0770 C.3    57  ILE57       0.0276
     34  CG1       12.6720   45.4140  -40.4170 C.3    57  ILE57       0.0022
     35  CG2       10.4350   44.9110  -39.2760 C.3    57  ILE57       0.0022
     36  CD1       12.5380   46.5090  -41.5540 C.3    57  ILE57       0.0001
     37  N         11.7170   51.3550  -37.3550 N.3    60  GLU60      -0.1245
     38  CA        11.5250   51.9620  -38.6770 C.3    60  GLU60       0.1567
     39  C         10.0570   52.0820  -39.0310 C.2    60  GLU60       0.2260
     40  O          9.6580   53.1500  -39.5130 O.2    60  GLU60      -0.2867
     41  CB        12.1760   51.1380  -39.7260 C.3    60  GLU60       0.0388
     42  CG        11.7440   51.4680  -41.1030 C.3    60  GLU60       0.1160
     43  CD        12.0030   50.2840  -41.9810 C.2    60  GLU60       0.3649
     44  OE1       11.2140   49.3320  -42.0100 O.co2  60  GLU60      -0.2457
     45  OE2       13.0370   50.3460  -42.6280 O.co2  60  GLU60      -0.2457
     46  N         19.8930   51.9380  -38.3500 N.3    80  HIS80      -0.1226
     47  CA        20.6710   52.6630  -39.3460 C.3    80  HIS80       0.1752
     48  C         20.3540   52.3870  -40.7870 C.2    80  HIS80       0.2596
     49  O         21.0990   52.8410  -41.6760 O.2    80  HIS80      -0.2718
     50  CB        22.1560   52.4160  -39.0860 C.3    80  HIS80       0.0759
     51  CG        22.5240   53.2420  -37.8670 C.ar   80  HIS80       0.0818
     52  ND1       22.5690   54.5760  -37.7680 N.ar   80  HIS80      -0.2268
     53  CD2       22.7680   52.7100  -36.6220 C.ar   80  HIS80       0.1154
     54  CE1       22.8240   54.8770  -36.5240 C.ar   80  HIS80       0.1986
     55  NE2       22.9380   53.7590  -35.8470 N.ar   80  HIS80      -0.2212
     56  N         19.1490   51.8090  -40.9250 N.am   81  ILE81      -0.1966
     57  CA        18.6130   51.3770  -42.1740 C.3    81  ILE81       0.1727
     58  C         18.5170   52.5380  -43.1210 C.2    81  ILE81       0.2616
     59  O         18.6030   52.3220  -44.3130 O.2    81  ILE81      -0.2715
     60  CB        17.2640   50.7310  -41.8890 C.3    81  ILE81       0.0290
     61  CG1       17.5390   49.3380  -41.3240 C.3    81  ILE81       0.0022
     62  CG2       16.4530   50.4670  -43.1110 C.3    81  ILE81       0.0023
     63  CD1       16.3350   48.5610  -40.6700 C.3    81  ILE81       0.0001
     64  N         18.4150   53.7970  -42.7140 N.am   82  TRP82      -0.1974
     65  CA        18.2880   54.8470  -43.7340 C.3    82  TRP82       0.1640
     66  C         19.4270   55.8920  -43.8540 C.2    82  TRP82       0.2290
     67  O         19.3300   56.8650  -44.5980 O.2    82  TRP82      -0.2864
     68  CB        16.8810   55.4920  -43.4790 C.3    82  TRP82       0.0576
     69  CG        15.6740   54.6230  -43.8540 C.ar   82  TRP82       0.0006
     70  CD1       15.1860   53.6890  -42.9990 C.ar   82  TRP82       0.0946
     71  CD2       15.0740   54.5900  -45.0810 C.ar   82  TRP82       0.0152
     72  NE1       14.2950   53.0400  -43.6960 N.ar   82  TRP82      -0.2442
     73  CE2       14.1920   53.5370  -44.9300 C.ar   82  TRP82       0.0810
     74  CE3       15.1510   55.2610  -46.2930 C.ar   82  TRP82       0.0012
     75  CZ2       13.3800   53.1400  -45.9870 C.ar   82  TRP82       0.0191
     76  CZ3       14.3380   54.8630  -47.3600 C.ar   82  TRP82       0.0001
     77  CH2       13.4660   53.8100  -47.2070 C.ar   82  TRP82       0.0015
     78  N         22.9030   56.0570  -45.2520 N.3    84  GLU84      -0.1231
     79  CA        23.6740   56.2320  -46.5060 C.3    84  GLU84       0.1699
     80  C         23.1330   57.3190  -47.4450 C.2    84  GLU84       0.2592
     81  O         23.8860   58.0650  -48.0690 O.2    84  GLU84      -0.2718
     82  CB        23.7420   54.9070  -47.3320 C.3    84  GLU84       0.0402
     83  CG        24.6750   53.7200  -46.9820 C.3    84  GLU84       0.1161
     84  CD        24.9460   52.7850  -48.1940 C.2    84  GLU84       0.3649
     85  OE1       23.9730   52.1940  -48.7180 O.co2  84  GLU84      -0.2457
     86  OE2       26.1080   52.6580  -48.6250 O.co2  84  GLU84      -0.2457
     87  N         21.8110   57.4460  -47.5160 N.am   85  TRP85      -0.1976
     88  CA        21.1360   58.4650  -48.3100 C.3    85  TRP85       0.1640
     89  C         21.3680   59.8830  -47.8830 C.2    85  TRP85       0.2290
     90  O         21.7580   60.6990  -48.7090 O.2    85  TRP85      -0.2864
     91  CB        19.6490   58.3240  -48.2830 C.3    85  TRP85       0.0576
     92  CG        19.2320   56.9650  -48.7950 C.ar   85  TRP85       0.0006
     93  CD1       18.5090   56.1390  -48.0050 C.ar   85  TRP85       0.0946
     94  CD2       19.4630   56.5120  -50.0720 C.ar   85  TRP85       0.0152
     95  NE1       18.2520   55.1540  -48.7930 N.ar   85  TRP85      -0.2442
     96  CE2       18.7770   55.3080  -50.0200 C.ar   85  TRP85       0.0810
     97  CE3       20.1390   56.9150  -51.2560 C.ar   85  TRP85       0.0012
     98  CZ2       18.7460   54.4830  -51.1580 C.ar   85  TRP85       0.0191
     99  CZ3       20.1130   56.0860  -52.3870 C.ar   85  TRP85       0.0001
    100  CH2       19.4100   54.8670  -52.3420 C.ar   85  TRP85       0.0015
    101  N         15.6130   56.5330  -53.9410 N.3   195  LEU195     -0.1245
    102  CA        15.1340   55.1400  -54.0830 C.3   195  LEU195      0.1561
    103  C         13.6630   55.3670  -54.1950 C.2   195  LEU195      0.2260
    104  O         13.0490   55.7980  -53.2090 O.2   195  LEU195     -0.2867
    105  CB        15.2640   54.1650  -52.8750 C.3   195  LEU195      0.0270
    106  CG        14.6230   52.7880  -53.1520 C.3   195  LEU195      0.0019
    107  CD1       15.3990   52.1410  -54.2900 C.3   195  LEU195      0.0001
    108  CD2       14.5820   51.8970  -51.9160 C.3   195  LEU195      0.0001
    109  N          9.8830   50.8590  -53.0630 N.3   198  CYS198     -0.1221
    110  CA         9.9300   49.5280  -53.6370 C.3   198  CYS198      0.1808
    111  C          8.5920   48.9200  -53.4320 C.2   198  CYS198      0.2601
    112  O          7.9730   48.2950  -54.2880 O.2   198  CYS198     -0.2717
    113  CB        10.9140   48.6430  -52.9660 C.3   198  CYS198      0.0970
    114  SG        12.6080   48.9810  -53.4900 S.3   198  CYS198     -0.0800
    115  N          8.0210   49.1750  -52.2880 N.am  199  HIS199     -0.1975
    116  CA         6.8050   48.4430  -51.9810 C.3   199  HIS199      0.1656
    117  C          5.8050   49.5130  -52.3140 C.2   199  HIS199      0.2291
    118  O          5.4130   50.3480  -51.4830 O.2   199  HIS199     -0.2864
    119  CB         6.7650   48.0910  -50.5250 C.3   199  HIS199      0.0771
    120  CG         8.1590   48.0360  -49.9990 C.ar  199  HIS199      0.0820
    121  ND1        8.8230   49.0950  -49.5370 N.ar  199  HIS199     -0.2267
    122  CD2        8.9860   46.9540  -50.0980 C.ar  199  HIS199      0.1154
    123  CE1       10.0720   48.6790  -49.3700 C.ar  199  HIS199      0.1986
    124  NE2       10.1590   47.4020  -49.7120 N.ar  199  HIS199     -0.2212
    125  N         15.0030   41.8980  -53.0220 N.3   221  ASP221     -0.1239
    126  CA        16.3200   41.2630  -53.0060 C.3   221  ASP221      0.1674
    127  C         15.9920   39.9960  -52.2680 C.2   221  ASP221      0.2266
    128  O         15.8830   40.1020  -51.0470 O.2   221  ASP221     -0.2867
    129  CB        17.3500   42.0230  -52.1750 C.3   221  ASP221      0.1410
    130  CG        18.7340   41.3890  -51.8880 C.2   221  ASP221      0.3668
    131  OD1       18.9740   40.1900  -52.0890 O.co2 221  ASP221     -0.2456
    132  OD2       19.6260   42.1330  -51.4690 O.co2 221  ASP221     -0.2456
    133  N         17.4550   37.8990  -50.6370 N.3   223  PHE223     -0.1227
    134  CA        18.2190   37.5370  -49.5000 C.3   223  PHE223      0.1736
    135  C         17.9730   38.5100  -48.3610 C.2   223  PHE223      0.2595
    136  O         17.4760   38.0760  -47.3370 O.2   223  PHE223     -0.2718
    137  CB        19.6640   37.4850  -49.8430 C.3   223  PHE223      0.0547
    138  CG        20.2390   36.8230  -48.6280 C.ar  223  PHE223     -0.0202
    139  CD1       19.7580   35.5780  -48.2510 C.ar  223  PHE223     -0.0042
    140  CD2       21.1580   37.4960  -47.8370 C.ar  223  PHE223     -0.0042
    141  CE1       20.2120   35.0230  -47.0660 C.ar  223  PHE223     -0.0003
    142  CE2       21.5990   36.9410  -46.6640 C.ar  223  PHE223     -0.0003
    143  CZ        21.1310   35.7010  -46.2740 C.ar  223  PHE223     -0.0000
    144  N         18.2710   39.7940  -48.5060 N.am  224  LEU224     -0.1966
    145  CA        18.1880   40.7560  -47.3980 C.3   224  LEU224      0.1728
    146  C         16.9170   41.5950  -47.3080 C.2   224  LEU224      0.2616
    147  O         16.4740   42.0870  -46.2730 O.2   224  LEU224     -0.2715
    148  CB        19.2750   41.7790  -47.4600 C.3   224  LEU224      0.0311
    149  CG        20.7400   41.4960  -47.5440 C.3   224  LEU224      0.0022
    150  CD1       21.0840   40.7910  -48.7990 C.3   224  LEU224      0.0001
    151  CD2       21.4840   42.7790  -47.7250 C.3   224  LEU224      0.0001
    152  N         16.3580   41.8240  -48.4910 N.am  225  GLY225     -0.1955
    153  CA        15.2010   42.6780  -48.6980 C.3   225  GLY225      0.1869
    154  C         14.0270   41.8990  -48.1970 C.2   225  GLY225      0.2309
    155  O         13.6130   42.1220  -47.0600 O.2   225  GLY225     -0.2863
    156  N         13.0450   41.0800  -44.3960 N.3   228  PHE228     -0.1227
    157  CA        12.5630   42.2310  -43.6470 C.3   228  PHE228      0.1736
    158  C         11.2780   42.7740  -44.2720 C.2   228  PHE228      0.2595
    159  O         10.4810   43.3370  -43.5520 O.2   228  PHE228     -0.2718
    160  CB        13.5530   43.3960  -43.6150 C.3   228  PHE228      0.0547
    161  CG        14.8430   43.2650  -42.8420 C.ar  228  PHE228     -0.0202
    162  CD1       15.6330   42.1160  -42.9200 C.ar  228  PHE228     -0.0042
    163  CD2       15.2740   44.3370  -42.0390 C.ar  228  PHE228     -0.0042
    164  CE1       16.8470   42.0500  -42.1950 C.ar  228  PHE228     -0.0003
    165  CE2       16.4770   44.2760  -41.3120 C.ar  228  PHE228     -0.0003
    166  CZ        17.2690   43.1240  -41.3920 C.ar  228  PHE228     -0.0000
    167  N         10.9370   42.6730  -45.5380 N.am  229  ASN229     -0.1974
    168  CA         9.7370   43.2640  -45.9940 C.3   229  ASN229      0.1688
    169  C          8.5860   42.4050  -45.5910 C.2   229  ASN229      0.2292
    170  O          7.6320   42.9800  -45.1080 O.2   229  ASN229     -0.2864
    171  CB         9.8940   43.4250  -47.4350 C.3   229  ASN229      0.1181
    172  CG        10.8930   44.5180  -47.7290 C.2   229  ASN229      0.2629
    173  OD1       11.6500   44.4780  -48.6990 O.2   229  ASN229     -0.2716
    174  ND2       10.9210   45.5900  -46.9600 N.am  229  ASN229     -0.0877
    175  N         14.1990   38.8820  -57.3230 N.3   259  HIS259     -0.1241
    176  CA        15.4430   38.4050  -57.8330 C.3   259  HIS259      0.1621
    177  C         16.3460   38.2090  -56.6740 C.2   259  HIS259      0.2264
    178  O         16.1940   38.8510  -55.6290 O.2   259  HIS259     -0.2867
    179  CB        16.0640   39.3890  -58.7930 C.3   259  HIS259      0.0745
    180  CG        16.1110   40.7850  -58.2720 C.ar  259  HIS259      0.0817
    181  ND1       15.0930   41.5960  -58.2270 N.ar  259  HIS259     -0.2268
    182  CD2       17.2070   41.4220  -57.7950 C.ar  259  HIS259      0.1154
    183  CE1       15.5260   42.7160  -57.7440 C.ar  259  HIS259      0.1986
    184  NE2       16.7940   42.6070  -57.4850 N.ar  259  HIS259     -0.2212
    185  N         20.2880   38.1380  -55.8390 N.3   261  TYR261     -0.1241
    186  CA        21.6030   38.5560  -56.1690 C.3   261  TYR261      0.1605
    187  C         22.5740   37.4810  -56.4490 C.2   261  TYR261      0.2264
    188  O         22.7190   36.6220  -55.6000 O.2   261  TYR261     -0.2867
    189  CB        22.1120   39.3790  -55.0410 C.3   261  TYR261      0.0534
    190  CG        21.7920   40.8190  -55.3070 C.ar  261  TYR261     -0.0201
    191  CD1       22.6220   41.4820  -56.1710 C.ar  261  TYR261     -0.0009
    192  CD2       20.6710   41.4370  -54.7560 C.ar  261  TYR261     -0.0009
    193  CE1       22.3330   42.7890  -56.5010 C.ar  261  TYR261      0.0417
    194  CE2       20.3560   42.7790  -55.0900 C.ar  261  TYR261      0.0417
    195  CZ        21.2090   43.4630  -55.9770 C.ar  261  TYR261      0.1957
    196  OH        21.0230   44.8060  -56.3260 O.3   261  TYR261     -0.2866
    197  N         23.0160   34.5810  -41.6720 N.3   310  ILE310     -0.1231
    198  CA        23.9830   34.4750  -42.7550 C.3   310  ILE310      0.1692
    199  C         24.5840   35.8480  -43.1630 C.2   310  ILE310      0.2592
    200  O         24.0390   36.9330  -42.9580 O.2   310  ILE310     -0.2718
    201  CB        23.2720   33.7220  -43.9250 C.3   310  ILE310      0.0266
    202  CG1       22.8580   32.2830  -43.5400 C.3   310  ILE310      0.0019
    203  CG2       24.2620   33.5310  -45.0410 C.3   310  ILE310      0.0020
    204  CD1       21.4270   31.9590  -43.1000 C.3   310  ILE310      0.0001
    205  N         25.7570   35.8150  -43.7650 N.am  311  LYS311     -0.1966
    206  CA        26.5490   36.9960  -44.0450 C.3   311  LYS311      0.1728
    207  C         26.3400   37.4930  -45.4760 C.2   311  LYS311      0.2616
    208  O         26.7610   36.8390  -46.4450 O.2   311  LYS311     -0.2715
    209  CB        28.0150   36.6030  -43.7660 C.3   311  LYS311      0.0311
    210  CG        28.5780   35.3550  -44.4910 C.3   311  LYS311      0.0038
    211  CD        29.8810   35.5800  -45.3300 C.3   311  LYS311      0.0206
    212  CE        29.7650   36.5250  -46.5400 C.3   311  LYS311      0.1093
    213  NZ        30.8080   36.3260  -47.5170 N.3   311  LYS311     -0.1314
    214  N         25.6440   38.5920  -45.7070 N.am  312  ALA312     -0.1977
    215  CA        25.5250   39.0450  -47.0890 C.3   312  ALA312      0.1597
    216  C         26.5720   40.1050  -47.5300 C.2   312  ALA312      0.2287
    217  O         27.0490   40.9540  -46.7630 O.2   312  ALA312     -0.2864
    218  CB        24.1340   39.5750  -47.2360 C.3   312  ALA312      0.0319
    219  N         26.5600   43.5660  -49.3180 N.3   314  VAL314     -0.1231
    220  CA        25.6750   44.7000  -49.5070 C.3   314  VAL314      0.1692
    221  C         25.1680   44.6610  -50.9460 C.2   314  VAL314      0.2592
    222  O         26.0010   44.4410  -51.8470 O.2   314  VAL314     -0.2718
    223  CB        26.3990   46.0360  -49.3260 C.3   314  VAL314      0.0266
    224  CG1       25.4010   47.1690  -49.4700 C.3   314  VAL314      0.0020
    225  CG2       27.0120   46.1240  -47.9270 C.3   314  VAL314      0.0020
    226  N         23.8210   44.9310  -51.0790 N.am  315  ALA315     -0.1966
    227  CA        23.0080   45.0370  -52.3260 C.3   315  ALA315      0.1728
    228  C         23.2130   46.2970  -53.2440 C.2   315  ALA315      0.2616
    229  O         22.3230   46.8030  -53.9730 O.2   315  ALA315     -0.2715
    230  CB        21.5000   44.9580  -51.9400 C.3   315  ALA315      0.0334
    231  N         24.4590   46.7460  -53.0350 N.am  316  VAL316     -0.1977
    232  CA        25.2010   47.7910  -53.7020 C.3   316  VAL316      0.1596
    233  C         24.3110   49.0610  -53.7860 C.2   316  VAL316      0.2287
    234  O         24.0690   49.6540  -52.7200 O.2   316  VAL316     -0.2864
    235  CB        25.7200   47.0960  -55.0910 C.3   316  VAL316      0.0276
    236  CG1       26.8440   47.9910  -55.6120 C.3   316  VAL316      0.0022
    237  CG2       26.3200   45.6380  -54.9360 C.3   316  VAL316      0.0022
@<TRIPOS>BOND
     1     2     1    1
     2     2     3    1
     3     2     5    1
     4     4     3    2
     5     5     6    1
     6     6     7    1
     7   179   180    1
     8   179   176    1
     9     7     8    1
    10   180   181   ar
    11   180   182   ar
    12   181   183   ar
    13   176   175    1
    14   176   177    1
    15   182   184   ar
    16   183   184   ar
    17     8     9    2
    18   177   178    2
    19   193   191   ar
    20   193   195   ar
    21   187   186    1
    22   187   188    2
    23   196   195    1
    24     9    10    1
    25     9    11    1
    26   191   190   ar
    27   186   185    1
    28   186   189    1
    29   195   194   ar
    30   236   235    1
    31   190   189    1
    32   190   192   ar
    33   235   237    1
    34   235   232    1
    35   194   192   ar
    36   107   106    1
    37   112   111    2
    38   103   102    1
    39   103   104    2
    40   102   101    1
    41   102   105    1
    42   229   228    2
    43   233   232    1
    44   233   234    2
    45   232   231    1
    46   110   111    1
    47   110   109    1
    48   110   113    1
    49   114   113    1
    50   111   115   am
    51   228   231   am
    52   228   227    1
    53   106   105    1
    54   106   108    1
    55   125   126    1
    56   126   127    1
    57   126   129    1
    58    99   100   ar
    59    99    97   ar
    60   100    98   ar
    61   227   230    1
    62   227   226    1
    63   117   116    1
    64   117   118    2
    65   115   116    1
    66   127   128    2
    67   129   130    1
    68   131   130   ar
    69   116   119    1
    70   130   132   ar
    71   222   221    2
    72    97    94   ar
    73    98    96   ar
    74   226   221   am
    75   221   220    1
    76   133   134    1
    77   119   120    1
    78   122   120   ar
    79   122   124   ar
    80    94    96   ar
    81    94    92   ar
    82    96    95   ar
    83   120   121   ar
    84   137   134    1
    85   137   138    1
    86   124   123   ar
    87   121   123   ar
    88   220   223    1
    89   220   219    1
    90   134   135    1
    91   224   223    1
    92   223   225    1
    93   150   149    1
    94    92    91    1
    95    92    93   ar
    96    95    93   ar
    97    85    84   ar
    98    90    89    2
    99   173   172    2
   100   153   152    1
   101   153   154    1
   102   138   139   ar
   103   138   140   ar
   104    86    84   ar
   105   144   135   am
   106   144   145    1
   107   152   146   am
   108   135   136    2
   109    88    91    1
   110    88    89    1
   111    88    87    1
   112   139   141   ar
   113   154   155    2
   114    84    83    1
   115    81    80    2
   116   140   142   ar
   117   172   171    1
   118   172   174   am
   119   151   149    1
   120   149   148    1
   121   216   215    1
   122   216   217    2
   123   213   212    1
   124    87    80   am
   125   148   145    1
   126    80    79    1
   127   171   168    1
   128   145   146    1
   129    76    77   ar
   130    76    74   ar
   131    82    83    1
   132    82    79    1
   133   146   147    2
   134   218   215    1
   135    77    75   ar
   136   215   214    1
   137   141   143   ar
   138   142   143   ar
   139   212   211    1
   140    79    78    1
   141   208   207    2
   142    74    71   ar
   143   168   169    1
   144   168   167    1
   145    75    73   ar
   146   214   207   am
   147   169   170    2
   148   167   158   am
   149   207   206    1
   150   211   210    1
   151    71    73   ar
   152    71    69   ar
   153   203   201    1
   154    73    72   ar
   155    67    66    2
   156    20    19    1
   157   210   209    1
   158    19    18    1
   159   156   157    1
   160    59    58    2
   161   158   157    1
   162   158   159    2
   163   206   209    1
   164   206   205    1
   165   201   202    1
   166   201   198    1
   167    18    17    1
   168    66    65    1
   169    69    68    1
   170    69    70   ar
   171   205   199   am
   172    65    68    1
   173    65    64    1
   174    72    70   ar
   175   157   160    1
   176   160   161    1
   177   202   204    1
   178   199   200    2
   179   199   198    1
   180    58    64   am
   181    58    57    1
   182    62    60    1
   183   162   161   ar
   184   162   164   ar
   185   161   163   ar
   186   198   197    1
   187    45    43   ar
   188    17    16    1
   189   164   166   ar
   190    57    60    1
   191    57    56    1
   192    16    13    1
   193   163   165   ar
   194    44    43   ar
   195    43    42    1
   196    60    61    1
   197    49    48    2
   198    36    34    1
   199   166   165   ar
   200    61    63    1
   201    42    41    1
   202    56    48   am
   203    48    47    1
   204    13    12    1
   205    13    14    1
   206    34    33    1
   207    41    38    1
   208    15    14    2
   209    40    39    2
   210    47    50    1
   211    47    46    1
   212    35    33    1
   213    50    51    1
   214    33    30    1
   215    39    38    1
   216    38    37    1
   217    32    31    2
   218    30    31    1
   219    30    29    1
   220    28    26    1
   221    51    52   ar
   222    51    53   ar
   223    52    54   ar
   224    29    23   am
   225    24    23    2
   226    26    25    1
   227    26    27    1
   228    23    22    1
   229    25    22    1
   230    53    55   ar
   231    54    55   ar
   232    22    21    1
