@<TRIPOS>MOLECULE
tmp/1lcbA01.pdb
 189 183 0 0 0
SMALL
GASTEIGER

@<TRIPOS>ATOM
      1  N         17.2620   31.5990  -40.7470 N.3    50  LYS50      -0.1245
      2  CA        18.4730   32.3840  -40.4720 C.3    50  LYS50       0.1561
      3  C         18.0450   33.3070  -39.3060 C.2    50  LYS50       0.2260
      4  O         17.0970   32.9460  -38.6220 O.2    50  LYS50      -0.2867
      5  CB        18.9470   33.2690  -41.6870 C.3    50  LYS50       0.0271
      6  CG        18.1840   34.6020  -42.0070 C.3    50  LYS50       0.0035
      7  CD        18.7010   35.1910  -43.3550 C.3    50  LYS50       0.0206
      8  CE        17.9250   36.3080  -44.1250 C.3    50  LYS50       0.1093
      9  NZ        17.9220   36.1430  -45.5610 N.3    50  LYS50      -0.1314
     10  N         14.5420   46.4510  -35.0420 N.3    56  LEU56      -0.1245
     11  CA        14.8790   47.2410  -36.1960 C.3    56  LEU56       0.1561
     12  C         13.9470   47.2110  -37.4610 C.2    56  LEU56       0.2260
     13  O         14.1580   47.8610  -38.4800 O.2    56  LEU56      -0.2867
     14  CB        16.3060   46.7950  -36.4080 C.3    56  LEU56       0.0270
     15  CG        17.0900   47.9370  -36.8350 C.3    56  LEU56       0.0019
     16  CD1       17.5750   48.7490  -35.6510 C.3    56  LEU56       0.0001
     17  CD2       18.1430   47.3860  -37.6940 C.3    56  LEU56       0.0001
     18  N         11.7050   50.9090  -37.5770 N.3    60  GLU60      -0.1245
     19  CA        11.4850   51.4200  -38.9530 C.3    60  GLU60       0.1567
     20  C         10.0730   51.9140  -39.2480 C.2    60  GLU60       0.2260
     21  O          9.8540   52.9970  -39.8030 O.2    60  GLU60      -0.2867
     22  CB        11.8730   50.3020  -39.9700 C.3    60  GLU60       0.0388
     23  CG        11.5730   50.4490  -41.4760 C.3    60  GLU60       0.1160
     24  CD        12.5530   49.6910  -42.3920 C.2    60  GLU60       0.3649
     25  OE1       12.5110   48.4540  -42.4040 O.co2  60  GLU60      -0.2457
     26  OE2       13.3930   50.3160  -43.0480 O.co2  60  GLU60      -0.2457
     27  N         19.5550   51.9520  -40.6640 N.3    81  ILE81      -0.1231
     28  CA        19.1150   51.4750  -42.0000 C.3    81  ILE81       0.1692
     29  C         19.0150   52.5900  -43.0630 C.2    81  ILE81       0.2592
     30  O         19.6860   52.5470  -44.0980 O.2    81  ILE81      -0.2718
     31  CB        17.7640   50.7620  -41.6870 C.3    81  ILE81       0.0266
     32  CG1       18.1200   49.3100  -41.3390 C.3    81  ILE81       0.0019
     33  CG2       16.7600   50.8270  -42.8040 C.3    81  ILE81       0.0020
     34  CD1       16.8490   48.4860  -40.9930 C.3    81  ILE81       0.0001
     35  N         18.2870   53.6750  -42.8370 N.am   82  TRP82      -0.1976
     36  CA        18.0700   54.7090  -43.8460 C.3    82  TRP82       0.1640
     37  C         19.1700   55.7610  -43.7580 C.2    82  TRP82       0.2290
     38  O         18.8150   56.9210  -44.0130 O.2    82  TRP82      -0.2864
     39  CB        16.6890   55.3700  -43.6100 C.3    82  TRP82       0.0576
     40  CG        15.5000   54.4360  -43.7980 C.ar   82  TRP82       0.0006
     41  CD1       15.0720   53.5360  -42.8260 C.ar   82  TRP82       0.0946
     42  CD2       14.8350   54.2940  -44.9750 C.ar   82  TRP82       0.0152
     43  NE1       14.1580   52.7960  -43.3920 N.ar   82  TRP82      -0.2442
     44  CE2       13.9990   53.1980  -44.6740 C.ar   82  TRP82       0.0810
     45  CE3       14.8340   54.8950  -46.2450 C.ar   82  TRP82       0.0012
     46  CZ2       13.1490   52.6930  -45.6700 C.ar   82  TRP82       0.0191
     47  CZ3       13.9830   54.4020  -47.2390 C.ar   82  TRP82       0.0001
     48  CH2       13.1590   53.3060  -46.9530 C.ar   82  TRP82       0.0015
     49  N         22.7810   56.4590  -44.9590 N.3    84  GLU84      -0.1231
     50  CA        23.5190   56.6360  -46.1960 C.3    84  GLU84       0.1699
     51  C         22.7180   57.4990  -47.2020 C.2    84  GLU84       0.2592
     52  O         23.3830   58.0430  -48.0790 O.2    84  GLU84      -0.2718
     53  CB        23.7760   55.2710  -46.8150 C.3    84  GLU84       0.0402
     54  CG        22.4550   54.7070  -47.5460 C.3    84  GLU84       0.1161
     55  CD        22.5730   53.3710  -48.2920 C.2    84  GLU84       0.3649
     56  OE1       22.4320   52.3170  -47.6390 O.co2  84  GLU84      -0.2457
     57  OE2       22.7970   53.4210  -49.5040 O.co2  84  GLU84      -0.2457
     58  N         21.3460   57.6330  -47.1800 N.am   85  TRP85      -0.1976
     59  CA        20.7280   58.6250  -48.0890 C.3    85  TRP85       0.1640
     60  C         20.9610   60.0800  -47.7150 C.2    85  TRP85       0.2290
     61  O         21.3130   60.8750  -48.5950 O.2    85  TRP85      -0.2864
     62  CB        19.1990   58.4030  -48.2820 C.3    85  TRP85       0.0576
     63  CG        18.9640   57.4990  -49.4870 C.ar   85  TRP85       0.0006
     64  CD1       19.9430   57.1280  -50.3950 C.ar   85  TRP85       0.0946
     65  CD2       17.7980   56.8280  -49.7120 C.ar   85  TRP85       0.0152
     66  NE1       19.3990   56.2020  -51.1660 N.ar   85  TRP85      -0.2442
     67  CE2       18.1250   55.9940  -50.7910 C.ar   85  TRP85       0.0810
     68  CE3       16.5410   56.8110  -49.1380 C.ar   85  TRP85       0.0012
     69  CZ2       17.1830   55.1170  -51.3040 C.ar   85  TRP85       0.0191
     70  CZ3       15.6050   55.9430  -49.6520 C.ar   85  TRP85       0.0001
     71  CH2       15.9250   55.1060  -50.7220 C.ar   85  TRP85       0.0015
     72  N         15.9510   56.0100  -55.2810 N.3   195  LEU195     -0.1245
     73  CA        15.2050   54.7670  -55.1690 C.3   195  LEU195      0.1561
     74  C         13.8450   55.4600  -55.1850 C.2   195  LEU195      0.2260
     75  O         13.6100   56.2650  -54.2710 O.2   195  LEU195     -0.2867
     76  CB        15.3550   54.0900  -53.8440 C.3   195  LEU195      0.0270
     77  CG        14.7030   52.7850  -53.5750 C.3   195  LEU195      0.0019
     78  CD1       15.7160   51.7440  -53.8880 C.3   195  LEU195      0.0001
     79  CD2       14.2390   52.6760  -52.1540 C.3   195  LEU195      0.0001
     80  N         10.0500   50.9440  -53.6080 N.3   198  CYS198     -0.1235
     81  CA         9.9230   49.5000  -53.8360 C.3   198  CYS198      0.1677
     82  C          8.5090   48.9880  -53.4820 C.2   198  CYS198      0.2270
     83  O          7.9380   48.0590  -54.0680 O.2   198  CYS198     -0.2867
     84  CB        10.9570   48.6730  -52.9750 C.3   198  CYS198      0.0956
     85  SG        12.4820   47.8930  -53.6950 S.3   198  CYS198     -0.0801
     86  N         14.5260   41.8810  -53.2630 N.3   221  ASP221     -0.1239
     87  CA        15.6810   41.0400  -53.1630 C.3   221  ASP221      0.1674
     88  C         15.6130   39.8100  -52.2230 C.2   221  ASP221      0.2266
     89  O         15.7800   39.8790  -51.0030 O.2   221  ASP221     -0.2867
     90  CB        16.8200   42.0500  -52.8380 C.3   221  ASP221      0.1410
     91  CG        18.0910   41.4830  -52.2190 C.2   221  ASP221      0.3668
     92  OD1       18.4920   40.4060  -52.6190 O.co2 221  ASP221     -0.2456
     93  OD2       18.7080   42.1070  -51.3530 O.co2 221  ASP221     -0.2456
     94  N         18.7400   39.5400  -48.4120 N.3   224  LEU224     -0.1231
     95  CA        18.6830   40.5110  -47.3600 C.3   224  LEU224      0.1693
     96  C         17.2720   41.1420  -47.3510 C.2   224  LEU224      0.2592
     97  O         16.4040   41.0080  -46.4530 O.2   224  LEU224     -0.2718
     98  CB        19.7970   41.5590  -47.5660 C.3   224  LEU224      0.0284
     99  CG        21.2490   41.1500  -47.6290 C.3   224  LEU224      0.0019
    100  CD1       21.6400   40.9320  -49.0680 C.3   224  LEU224      0.0001
    101  CD2       22.1310   42.2680  -47.2550 C.3   224  LEU224      0.0001
    102  N         17.0630   41.6660  -48.5770 N.am  225  GLY225     -0.1957
    103  CA        15.8580   42.3430  -49.0590 C.3   225  GLY225      0.1869
    104  C         14.4650   41.9640  -48.5910 C.2   225  GLY225      0.2309
    105  O         13.8850   42.6680  -47.7800 O.2   225  GLY225     -0.2863
    106  N         12.7140   41.4100  -44.4610 N.3   228  PHE228     -0.1241
    107  CA        12.2130   42.5570  -43.7270 C.3   228  PHE228      0.1605
    108  C         10.9200   43.0880  -44.3550 C.2   228  PHE228      0.2264
    109  O         10.1930   43.9450  -43.7970 O.2   228  PHE228     -0.2867
    110  CB        13.2860   43.6770  -43.7180 C.3   228  PHE228      0.0534
    111  CG        14.6280   43.3480  -43.0680 C.ar  228  PHE228     -0.0203
    112  CD1       15.0750   42.0260  -42.8840 C.ar  228  PHE228     -0.0042
    113  CD2       15.3820   44.4260  -42.5800 C.ar  228  PHE228     -0.0042
    114  CE1       16.2470   41.7860  -42.2040 C.ar  228  PHE228     -0.0003
    115  CE2       16.5600   44.1800  -41.9030 C.ar  228  PHE228     -0.0003
    116  CZ        16.9950   42.8610  -41.7070 C.ar  228  PHE228     -0.0000
    117  N         13.7520   38.6540  -56.9540 N.3   259  HIS259     -0.1241
    118  CA        15.1060   38.4110  -57.3820 C.3   259  HIS259      0.1621
    119  C         16.1010   37.9960  -56.3800 C.2   259  HIS259      0.2264
    120  O         16.2330   38.5460  -55.2950 O.2   259  HIS259     -0.2867
    121  CB        15.6700   39.6470  -58.1100 C.3   259  HIS259      0.0745
    122  CG        16.0560   40.9540  -57.3770 C.ar  259  HIS259      0.0817
    123  ND1       15.3420   42.0990  -57.3240 N.ar  259  HIS259     -0.2268
    124  CD2       17.2530   41.1830  -56.7570 C.ar  259  HIS259      0.1154
    125  CE1       16.0360   43.0160  -56.7200 C.ar  259  HIS259      0.1986
    126  NE2       17.1800   42.4290  -56.3910 N.ar  259  HIS259     -0.2212
    127  N         19.5100   38.1870  -56.4980 N.3   261  TYR261     -0.1241
    128  CA        20.7800   38.8550  -56.8000 C.3   261  TYR261      0.1605
    129  C         21.8910   37.7670  -56.7460 C.2   261  TYR261      0.2264
    130  O         22.2680   37.3160  -55.6570 O.2   261  TYR261     -0.2867
    131  CB        20.9960   39.8920  -55.7050 C.3   261  TYR261      0.0534
    132  CG        21.3070   41.3560  -55.9110 C.ar  261  TYR261     -0.0201
    133  CD1       22.6240   41.7780  -56.1980 C.ar  261  TYR261     -0.0009
    134  CD2       20.2690   42.2880  -55.7840 C.ar  261  TYR261     -0.0009
    135  CE1       22.8920   43.1670  -56.3550 C.ar  261  TYR261      0.0417
    136  CE2       20.5330   43.6530  -55.9480 C.ar  261  TYR261      0.0417
    137  CZ        21.8420   44.1030  -56.2250 C.ar  261  TYR261      0.1957
    138  OH        22.0830   45.4650  -56.2940 O.3   261  TYR261     -0.2866
    139  N         24.7210   36.7910  -53.8140 N.3   264  HIS264     -0.1241
    140  CA        24.4480   36.0300  -52.6120 C.3   264  HIS264      0.1621
    141  C         23.5890   34.7720  -52.9010 C.2   264  HIS264      0.2264
    142  O         22.4840   34.4850  -52.3740 O.2   264  HIS264     -0.2867
    143  CB        23.7930   36.9680  -51.5960 C.3   264  HIS264      0.0745
    144  CG        22.5210   37.7450  -52.0400 C.ar  264  HIS264      0.0817
    145  ND1       21.3030   37.2780  -52.3470 N.ar  264  HIS264     -0.2268
    146  CD2       22.4790   39.1240  -52.1470 C.ar  264  HIS264      0.1154
    147  CE1       20.5430   38.2760  -52.6210 C.ar  264  HIS264      0.1986
    148  NE2       21.2520   39.3750  -52.4980 N.ar  264  HIS264     -0.2212
    149  N         23.0940   34.6270  -41.0220 N.3   310  ILE310     -0.1231
    150  CA        23.7810   34.5790  -42.2610 C.3   310  ILE310      0.1692
    151  C         23.8530   36.0080  -42.8940 C.2   310  ILE310      0.2592
    152  O         23.0040   36.9050  -42.9190 O.2   310  ILE310     -0.2718
    153  CB        22.9520   33.3100  -42.8460 C.3   310  ILE310      0.0266
    154  CG1       23.5240   32.0960  -42.1290 C.3   310  ILE310      0.0019
    155  CG2       23.0720   33.0110  -44.2670 C.3   310  ILE310      0.0020
    156  CD1       25.0650   31.8090  -42.2380 C.3   310  ILE310      0.0001
    157  N         25.0280   36.1320  -43.4550 N.am  311  LYS311     -0.1966
    158  CA        25.6250   37.4410  -43.7000 C.3   311  LYS311      0.1728
    159  C         25.9620   37.8820  -45.1280 C.2   311  LYS311      0.2616
    160  O         26.3900   37.0450  -45.9400 O.2   311  LYS311     -0.2715
    161  CB        26.8170   37.4060  -42.7380 C.3   311  LYS311      0.0311
    162  CG        27.6260   36.0380  -42.7100 C.3   311  LYS311      0.0038
    163  CD        28.5430   35.7360  -43.9500 C.3   311  LYS311      0.0206
    164  CE        28.4680   34.3320  -44.6050 C.3   311  LYS311      0.1093
    165  NZ        28.8220   33.2020  -43.7410 N.3   311  LYS311     -0.1314
    166  N         25.7430   39.1650  -45.4900 N.am  312  ALA312     -0.1964
    167  CA        26.0760   39.6210  -46.8390 C.3   312  ALA312      0.1713
    168  C         27.3150   40.4940  -47.0560 C.2   312  ALA312      0.2458
    169  O         27.9100   41.0490  -46.1230 O.2   312  ALA312     -0.2730
    170  CB        24.9280   40.3800  -47.4260 C.3   312  ALA312      0.0333
    171  N         27.8160   40.6600  -48.2900 N.am  313  PRO313     -0.2727
    172  CA        28.5540   41.8630  -48.6420 C.3   313  PRO313      0.1402
    173  C         27.6580   42.9970  -49.2070 C.2   313  PRO313      0.2269
    174  O         26.4510   42.8600  -49.5180 O.2   313  PRO313     -0.2865
    175  CB        29.6440   41.2930  -49.6120 C.3   313  PRO313      0.0296
    176  CG        28.9680   40.1550  -50.3500 C.3   313  PRO313      0.0237
    177  CD        27.8000   39.7230  -49.4280 C.3   313  PRO313      0.0939
    178  N         25.7400   45.8600  -50.4030 N.3   315  ALA315     -0.1231
    179  CA        24.4120   46.0320  -50.9930 C.3   315  ALA315      0.1694
    180  C         24.2430   46.9740  -52.1930 C.2   315  ALA315      0.2591
    181  O         23.7510   46.5670  -53.2640 O.2   315  ALA315     -0.2718
    182  CB        23.4120   46.4860  -49.8760 C.3   315  ALA315      0.0304
    183  N         24.8460   48.1520  -52.0120 N.am  316  VAL316     -0.1980
    184  CA        24.6940   49.3260  -52.8670 C.3   316  VAL316      0.1595
    185  C         23.2500   49.9700  -52.5760 C.2   316  VAL316      0.2287
    186  O         23.1430   51.1950  -52.4620 O.2   316  VAL316     -0.2864
    187  CB        24.9590   48.9180  -54.4550 C.3   316  VAL316      0.0276
    188  CG1       25.7920   50.0850  -55.0240 C.3   316  VAL316      0.0022
    189  CG2       25.9260   47.6930  -54.7900 C.3   316  VAL316      0.0022
@<TRIPOS>BOND
     1   121   118    1
     2   121   122    1
     3   118   117    1
     4   118   119    1
     5   122   123   ar
     6   122   124   ar
     7   123   125   ar
     8   128   129    1
     9   128   127    1
    10   128   131    1
    11   124   126   ar
    12   129   130    2
    13   125   126   ar
    14   119   120    2
    15   135   137   ar
    16   135   133   ar
    17   138   137    1
    18   137   136   ar
    19   133   132   ar
    20   136   134   ar
    21   132   134   ar
    22   132   131    1
    23    72    73    1
    24    74    73    1
    25    74    75    2
    26    73    76    1
    27   188   187    1
    28   189   187    1
    29   187   184    1
    30    83    82    2
    31    78    77    1
    32    76    77    1
    33    81    80    1
    34    81    82    1
    35    81    84    1
    36   139   140    1
    37    85    84    1
    38    77    79    1
    39   181   180    2
    40    86    87    1
    41    87    90    1
    42    87    88    1
    43   141   140    1
    44   141   142    2
    45   184   185    1
    46   184   183    1
    47    90    91    1
    48   147   148   ar
    49   147   145   ar
    50    92    91   ar
    51   140   143    1
    52   185   186    2
    53   148   146   ar
    54   145   144   ar
    55    88    89    2
    56    91    93   ar
    57   180   183   am
    58   180   179    1
    59   146   144   ar
    60   144   143    1
    61    69    67   ar
    62    69    71   ar
    63    66    67   ar
    64    66    64   ar
    65   179   178    1
    66   179   182    1
    67    67    65   ar
    68    71    70   ar
    69    64    63   ar
    70   176   175    1
    71   176   177    1
    72    65    63   ar
    73    65    68   ar
    74    70    68   ar
    75   175   172    1
    76   174   173    2
    77    57    55   ar
    78    63    62    1
    79   177   171    1
    80   173   172    1
    81   100    99    1
    82   103   104    1
    83   103   102    1
    84   172   171    1
    85    61    60    2
    86   104   105    2
    87   102    96   am
    88    94    95    1
    89    55    56   ar
    90    55    54    1
    91   171   168   am
    92    62    59    1
    93    59    60    1
    94    59    58    1
    95    52    51    2
    96    99    98    1
    97    99   101    1
    98    98    95    1
    99    54    53    1
   100   170   167    1
   101    95    96    1
   102    96    97    2
   103    47    48   ar
   104    47    45   ar
   105    51    58   am
   106    51    50    1
   107   168   167    1
   108   168   169    2
   109    48    46   ar
   110   167   166    1
   111    53    50    1
   112    45    42   ar
   113    50    49    1
   114   160   159    2
   115    46    44   ar
   116     9     8    1
   117   166   159   am
   118   159   158    1
   119    42    44   ar
   120    42    40   ar
   121    44    43   ar
   122   164   163    1
   123   164   165    1
   124   106   107    1
   125   108   109    2
   126   108   107    1
   127   155   153    1
   128     8     7    1
   129    30    29    2
   130    38    37    2
   131   163   162    1
   132    36    37    1
   133    36    39    1
   134    36    35    1
   135    40    39    1
   136    40    41   ar
   137   107   110    1
   138   110   111    1
   139   158   157    1
   140   158   161    1
   141   157   151   am
   142    43    41   ar
   143     7     6    1
   144   111   112   ar
   145   111   113   ar
   146    29    35   am
   147    29    28    1
   148    26    24   ar
   149   152   151    2
   150   151   150    1
   151   112   114   ar
   152   153   150    1
   153   153   154    1
   154    33    31    1
   155   161   162    1
   156   113   115   ar
   157    25    24   ar
   158    24    23    1
   159   150   149    1
   160   156   154    1
   161   114   116   ar
   162     6     5    1
   163    28    31    1
   164    28    27    1
   165   115   116   ar
   166     5     2    1
   167    31    32    1
   168    23    22    1
   169    32    34    1
   170     1     2    1
   171     2     3    1
   172    22    19    1
   173    21    20    2
   174     3     4    2
   175    20    19    1
   176    19    18    1
   177    13    12    2
   178    17    15    1
   179    12    11    1
   180    15    14    1
   181    15    16    1
   182    14    11    1
   183    11    10    1
