@<TRIPOS>MOLECULE
tmp/1lceA01.pdb
 202 202 0 0 0
SMALL
GASTEIGER

@<TRIPOS>ATOM
      1  N         17.3230   32.0040  -40.0250 N.3    50  LYS50      -0.1245
      2  CA        18.2920   33.1000  -40.3220 C.3    50  LYS50       0.1561
      3  C         17.7960   34.2710  -39.4960 C.2    50  LYS50       0.2260
      4  O         16.6750   34.7520  -39.6310 O.2    50  LYS50      -0.2867
      5  CB        18.3690   33.5640  -41.8290 C.3    50  LYS50       0.0271
      6  CG        18.5780   35.0210  -42.2510 C.3    50  LYS50       0.0035
      7  CD        18.1040   35.3040  -43.6860 C.3    50  LYS50       0.0206
      8  CE        17.8640   36.7390  -44.2130 C.3    50  LYS50       0.1093
      9  NZ        18.9170   37.6490  -44.1640 N.3    50  LYS50      -0.1314
     10  N         16.6230   37.6680  -38.2320 N.3    52  VAL52      -0.1245
     11  CA        16.1680   38.9100  -38.8220 C.3    52  VAL52       0.1561
     12  C         15.9870   39.8290  -37.6130 C.2    52  VAL52       0.2260
     13  O         15.4670   39.3170  -36.6280 O.2    52  VAL52      -0.2867
     14  CB        14.8250   38.7550  -39.5310 C.3    52  VAL52       0.0252
     15  CG1       15.0590   39.2710  -40.8930 C.3    52  VAL52       0.0019
     16  CG2       14.3400   37.3480  -39.7920 C.3    52  VAL52       0.0019
     17  N         11.4040   51.3800  -37.4310 N.3    60  GLU60      -0.1245
     18  CA        11.3260   51.9850  -38.7390 C.3    60  GLU60       0.1567
     19  C          9.9280   52.2980  -39.1910 C.2    60  GLU60       0.2260
     20  O          9.6970   53.3550  -39.7750 O.2    60  GLU60      -0.2867
     21  CB        11.9670   51.0690  -39.7070 C.3    60  GLU60       0.0388
     22  CG        11.4960   51.3050  -41.0870 C.3    60  GLU60       0.1160
     23  CD        12.1860   50.4070  -42.0090 C.2    60  GLU60       0.3649
     24  OE1       11.8550   49.2220  -42.0590 O.co2  60  GLU60      -0.2457
     25  OE2       13.0560   50.9330  -42.6580 O.co2  60  GLU60      -0.2457
     26  N          7.8290   55.4800  -39.9520 N.3    64  PHE64      -0.1241
     27  CA         6.9650   55.7600  -41.0950 C.3    64  PHE64       0.1605
     28  C          5.5460   56.1200  -40.6460 C.2    64  PHE64       0.2264
     29  O          5.0030   57.1090  -41.1810 O.2    64  PHE64      -0.2867
     30  CB         6.8510   54.5870  -41.9970 C.3    64  PHE64       0.0534
     31  CG         8.0950   54.0220  -42.7020 C.ar   64  PHE64      -0.0203
     32  CD1        9.3640   54.5660  -42.5820 C.ar   64  PHE64      -0.0042
     33  CD2        7.9250   52.9380  -43.5590 C.ar   64  PHE64      -0.0042
     34  CE1       10.4310   54.0510  -43.3110 C.ar   64  PHE64      -0.0003
     35  CE2        8.9970   52.4290  -44.2840 C.ar   64  PHE64      -0.0003
     36  CZ        10.2560   52.9840  -44.1660 C.ar   64  PHE64      -0.0000
     37  N         19.4360   52.0800  -40.8780 N.3    81  ILE81      -0.1231
     38  CA        19.0120   51.5710  -42.1890 C.3    81  ILE81       0.1692
     39  C         18.9340   52.7510  -43.1580 C.2    81  ILE81       0.2592
     40  O         19.2440   52.5800  -44.3130 O.2    81  ILE81      -0.2718
     41  CB        17.5390   50.8990  -42.1750 C.3    81  ILE81       0.0266
     42  CG1       17.4960   49.5010  -41.6180 C.3    81  ILE81       0.0019
     43  CG2       17.0100   50.7510  -43.6070 C.3    81  ILE81       0.0020
     44  CD1       16.0320   48.8980  -41.6730 C.3    81  ILE81       0.0001
     45  N         18.4800   53.9400  -42.7640 N.am   82  TRP82      -0.1976
     46  CA        18.3060   55.1020  -43.6350 C.3    82  TRP82       0.1640
     47  C         19.4110   56.1070  -43.9080 C.2    82  TRP82       0.2290
     48  O         19.3710   56.8300  -44.9270 O.2    82  TRP82      -0.2864
     49  CB        17.0840   55.8660  -43.1420 C.3    82  TRP82       0.0576
     50  CG        15.8830   55.0450  -43.6520 C.ar   82  TRP82       0.0006
     51  CD1       15.2500   54.1010  -42.8790 C.ar   82  TRP82       0.0946
     52  CD2       15.3580   55.1460  -44.9400 C.ar   82  TRP82       0.0152
     53  NE1       14.3350   53.6130  -43.6790 N.ar   82  TRP82      -0.2442
     54  CE2       14.3480   54.1920  -44.8980 C.ar   82  TRP82       0.0810
     55  CE3       15.5930   55.8960  -46.1180 C.ar   82  TRP82       0.0012
     56  CZ2       13.5790   54.0010  -46.0360 C.ar   82  TRP82       0.0191
     57  CZ3       14.8050   55.6890  -47.2510 C.ar   82  TRP82       0.0001
     58  CH2       13.8030   54.7440  -47.2000 C.ar   82  TRP82       0.0015
     59  N         21.3700   57.9490  -47.8420 N.3    85  TRP85      -0.1241
     60  CA        20.9830   58.9700  -48.8140 C.3    85  TRP85       0.1605
     61  C         21.1070   60.3600  -48.1810 C.2    85  TRP85       0.2264
     62  O         21.4890   61.3190  -48.8390 O.2    85  TRP85      -0.2867
     63  CB        19.6080   58.7090  -49.2440 C.3    85  TRP85       0.0550
     64  CG        19.2870   57.3170  -49.7810 C.ar   85  TRP85       0.0003
     65  CD1       20.1410   56.2570  -49.8550 C.ar   85  TRP85       0.0946
     66  CD2       18.0390   57.0000  -50.1900 C.ar   85  TRP85       0.0152
     67  NE1       19.4100   55.2730  -50.2920 N.ar   85  TRP85      -0.2442
     68  CE2       18.1640   55.6540  -50.5010 C.ar   85  TRP85       0.0810
     69  CE3       16.8290   57.6980  -50.3040 C.ar   85  TRP85       0.0012
     70  CZ2       17.0740   54.9170  -50.9450 C.ar   85  TRP85       0.0191
     71  CZ3       15.7170   56.9620  -50.7500 C.ar   85  TRP85       0.0001
     72  CH2       15.8510   55.5810  -51.0610 C.ar   85  TRP85       0.0015
     73  N          8.5110   57.1850  -46.8780 N.3   146  TYR146     -0.1298
     74  CA         7.2130   56.6370  -46.6340 C.3   146  TYR146      0.1290
     75  C          6.4400   57.4350  -45.6260 C.3   146  TYR146      0.2013
     76  O          5.2590   57.5700  -45.9310 O.3   146  TYR146     -0.2188
     77  CB         7.3250   55.2000  -46.1810 C.3   146  TYR146      0.0480
     78  CG         7.8200   54.3000  -47.2730 C.ar  146  TYR146     -0.0204
     79  CD1        6.9670   53.8930  -48.2900 C.ar  146  TYR146     -0.0009
     80  CD2        9.1720   53.9070  -47.2420 C.ar  146  TYR146     -0.0009
     81  CE1        7.4980   53.0720  -49.2860 C.ar  146  TYR146      0.0417
     82  CE2        9.6910   53.0890  -48.2290 C.ar  146  TYR146      0.0417
     83  CZ         8.8440   52.6930  -49.2380 C.ar  146  TYR146      0.1957
     84  OH         9.3870   51.9390  -50.2170 O.3   146  TYR146     -0.2866
     85  N         15.6740   56.5980  -54.3860 N.3   195  LEU195     -0.1231
     86  CA        15.0830   55.3330  -54.8100 C.3   195  LEU195      0.1678
     87  C         13.6400   55.7170  -54.7250 C.2   195  LEU195      0.2434
     88  O         13.2070   56.3770  -53.7560 O.2   195  LEU195     -0.2733
     89  CB        15.3510   54.1930  -53.8780 C.3   195  LEU195      0.0284
     90  CG        14.9980   52.7270  -54.2510 C.3   195  LEU195      0.0019
     91  CD1       15.1180   52.4780  -55.7720 C.3   195  LEU195      0.0001
     92  CD2       15.7900   51.7710  -53.5490 C.3   195  LEU195      0.0001
     93  N         12.9240   55.5180  -55.8310 N.am  196  PRO196     -0.2718
     94  CA        11.4830   55.6670  -55.8220 C.3   196  PRO196      0.1520
     95  C         10.9050   54.6380  -54.8210 C.2   196  PRO196      0.2440
     96  O         11.6950   53.7940  -54.3520 O.2   196  PRO196     -0.2731
     97  CB        11.0900   55.4850  -57.3050 C.3   196  PRO196      0.0310
     98  CG        12.3410   55.8740  -58.0570 C.3   196  PRO196      0.0237
     99  CD        13.4230   55.2920  -57.1740 C.3   196  PRO196      0.0939
    100  N          9.6380   54.6490  -54.3470 N.am  197  PRO197     -0.2716
    101  CA         9.2150   53.7520  -53.2920 C.3   197  PRO197      0.1536
    102  C          9.3910   52.2900  -53.7930 C.2   197  PRO197      0.2599
    103  O          9.2650   52.1040  -54.9940 O.2   197  PRO197     -0.2715
    104  CB         7.8030   54.3120  -53.0540 C.3   197  PRO197      0.0310
    105  CG         7.2920   54.7740  -54.3890 C.3   197  PRO197      0.0237
    106  CD         8.5210   55.4600  -54.8570 C.3   197  PRO197      0.0939
    107  N          9.7800   51.2410  -53.0690 N.am  198  CYS198     -0.1954
    108  CA         9.8630   49.9050  -53.6560 C.3   198  CYS198      0.1843
    109  C          8.5850   49.1410  -53.3130 C.2   198  CYS198      0.2625
    110  O          8.2030   48.1050  -53.8280 O.2   198  CYS198     -0.2714
    111  CB        11.0560   49.1560  -53.1080 C.3   198  CYS198      0.0997
    112  SG        12.7510   49.2950  -53.7710 S.3   198  CYS198     -0.0797
    113  N          7.7770   49.6050  -52.3990 N.am  199  HIS199     -0.1973
    114  CA         6.5670   48.9370  -51.9840 C.3   199  HIS199      0.1656
    115  C          5.5790   49.9590  -52.4120 C.2   199  HIS199      0.2291
    116  O          5.2480   50.9010  -51.6650 O.2   199  HIS199     -0.2864
    117  CB         6.5030   48.8600  -50.5320 C.3   199  HIS199      0.0771
    118  CG         7.8100   48.4300  -49.9300 C.ar  199  HIS199      0.0820
    119  ND1        8.2080   48.8440  -48.7490 N.ar  199  HIS199     -0.2267
    120  CD2        8.6940   47.5340  -50.4540 C.ar  199  HIS199      0.1154
    121  CE1        9.3360   48.2140  -48.4930 C.ar  199  HIS199      0.1986
    122  NE2        9.5860   47.4690  -49.5320 N.ar  199  HIS199     -0.2212
    123  N          5.2010   45.2480  -54.3380 N.3   217  GLN217     -0.1245
    124  CA         6.5490   45.6670  -54.2590 C.3   217  GLN217      0.1566
    125  C          6.8500   45.5120  -55.7290 C.2   217  GLN217      0.2260
    126  O          6.2700   44.7320  -56.4880 O.2   217  GLN217     -0.2867
    127  CB         7.2470   44.7290  -53.3480 C.3   217  GLN217      0.0367
    128  CG         8.7150   45.1280  -53.2040 C.3   217  GLN217      0.0905
    129  CD         9.4620   44.5030  -52.0570 C.2   217  GLN217      0.2608
    130  OE1        8.8810   43.8940  -51.1820 O.2   217  GLN217     -0.2717
    131  NE2       10.7540   44.6280  -51.9450 N.am  217  GLN217     -0.0878
    132  N         16.9680   37.2210  -50.1510 N.3   223  PHE223     -0.1227
    133  CA        18.0140   36.9630  -49.1690 C.3   223  PHE223      0.1736
    134  C         18.0400   38.2530  -48.3990 C.2   223  PHE223      0.2595
    135  O         17.5300   38.2340  -47.2990 O.2   223  PHE223     -0.2718
    136  CB        19.4950   36.6970  -49.6770 C.3   223  PHE223      0.0547
    137  CG        20.2640   36.3300  -48.4390 C.ar  223  PHE223     -0.0202
    138  CD1       19.8890   35.1990  -47.7120 C.ar  223  PHE223     -0.0042
    139  CD2       21.2040   37.2210  -47.9380 C.ar  223  PHE223     -0.0042
    140  CE1       20.4530   34.9910  -46.4600 C.ar  223  PHE223     -0.0003
    141  CE2       21.7610   37.0070  -46.6850 C.ar  223  PHE223     -0.0003
    142  CZ        21.3800   35.8950  -45.9450 C.ar  223  PHE223     -0.0000
    143  N         18.6070   39.3280  -48.9310 N.am  224  LEU224     -0.1966
    144  CA        18.6050   40.5810  -48.1940 C.3   224  LEU224      0.1728
    145  C         17.3530   41.3110  -48.6380 C.2   224  LEU224      0.2616
    146  O         17.0200   41.0310  -49.7920 O.2   224  LEU224     -0.2715
    147  CB        19.7450   41.4140  -48.5520 C.3   224  LEU224      0.0311
    148  CG        21.1200   40.8640  -48.3800 C.3   224  LEU224      0.0022
    149  CD1       22.1330   41.9400  -48.6260 C.3   224  LEU224      0.0001
    150  CD2       21.3410   40.4510  -46.9660 C.3   224  LEU224      0.0001
    151  N         16.6250   42.2100  -48.0080 N.am  225  GLY225     -0.1955
    152  CA        15.3990   42.7410  -48.5690 C.3   225  GLY225      0.1869
    153  C         14.1080   41.9700  -48.2680 C.2   225  GLY225      0.2309
    154  O         13.2990   42.3770  -47.4280 O.2   225  GLY225     -0.2863
    155  N         13.1410   39.1250  -46.3680 N.3   227  PRO227     -0.2102
    156  CA        12.8790   38.9050  -44.9610 C.3   227  PRO227      0.1504
    157  C         12.3740   40.1510  -44.3100 C.2   227  PRO227      0.2576
    158  O         11.5760   40.0790  -43.3990 O.2   227  PRO227     -0.2718
    159  CB        14.1660   38.5060  -44.3090 C.3   227  PRO227      0.0282
    160  CG        15.0080   38.0800  -45.4720 C.3   227  PRO227      0.0208
    161  CD        14.5720   38.9980  -46.5970 C.3   227  PRO227      0.0893
    162  N         12.7960   41.3220  -44.7180 N.am  228  PHE228     -0.1963
    163  CA        12.4150   42.5280  -43.9850 C.3   228  PHE228      0.1771
    164  C         11.0740   43.1230  -44.2790 C.2   228  PHE228      0.2619
    165  O         10.2720   43.5220  -43.4160 O.2   228  PHE228     -0.2715
    166  CB        13.4520   43.6270  -44.1960 C.3   228  PHE228      0.0574
    167  CG        14.4980   43.7970  -43.1090 C.ar  228  PHE228     -0.0200
    168  CD1       15.6510   43.0140  -43.1070 C.ar  228  PHE228     -0.0042
    169  CD2       14.3200   44.7960  -42.1630 C.ar  228  PHE228     -0.0042
    170  CE1       16.6420   43.2440  -42.1670 C.ar  228  PHE228     -0.0003
    171  CE2       15.3040   45.0210  -41.2270 C.ar  228  PHE228     -0.0003
    172  CZ        16.4580   44.2540  -41.2320 C.ar  228  PHE228     -0.0000
    173  N         10.8720   43.1800  -45.5750 N.am  229  ASN229     -0.1972
    174  CA         9.6340   43.7090  -46.0940 C.3   229  ASN229      0.1688
    175  C          8.4520   42.8170  -45.7040 C.2   229  ASN229      0.2292
    176  O          7.4800   43.3840  -45.2500 O.2   229  ASN229     -0.2864
    177  CB         9.8040   43.8580  -47.5940 C.3   229  ASN229      0.1181
    178  CG        11.0750   44.5830  -47.9970 C.2   229  ASN229      0.2629
    179  OD1       11.4520   44.5820  -49.1670 O.2   229  ASN229     -0.2716
    180  ND2       11.8050   45.2210  -47.0930 N.am  229  ASN229     -0.0877
    181  N         23.2390   35.5820  -41.1070 N.3   310  ILE310     -0.1231
    182  CA        24.1330   35.2180  -42.1970 C.3   310  ILE310      0.1692
    183  C         24.7270   36.5190  -42.7200 C.2   310  ILE310      0.2592
    184  O         24.1740   37.5880  -42.5260 O.2   310  ILE310     -0.2718
    185  CB        23.3820   34.4470  -43.3300 C.3   310  ILE310      0.0266
    186  CG1       23.2550   32.9910  -42.9930 C.3   310  ILE310      0.0019
    187  CG2       24.1840   34.4230  -44.6190 C.3   310  ILE310      0.0020
    188  CD1       21.8610   32.4830  -43.1810 C.3   310  ILE310      0.0001
    189  N         25.9410   36.4380  -43.2740 N.am  311  LYS311     -0.1966
    190  CA        26.5660   37.5650  -43.9190 C.3   311  LYS311      0.1728
    191  C         26.1590   37.5320  -45.3930 C.2   311  LYS311      0.2616
    192  O         26.3880   36.5200  -46.0640 O.2   311  LYS311     -0.2715
    193  CB        28.1390   37.5180  -43.8500 C.3   311  LYS311      0.0311
    194  CG        28.9730   36.3510  -44.5600 C.3   311  LYS311      0.0038
    195  CD        30.3530   36.6650  -45.2580 C.3   311  LYS311      0.0206
    196  CE        30.5260   36.1250  -46.6920 C.3   311  LYS311      0.1093
    197  NZ        29.4970   36.6450  -47.5830 N.3   311  LYS311     -0.1314
    198  N         25.4420   38.4820  -45.9600 N.am  312  ALA312     -0.1977
    199  CA        25.5520   38.5960  -47.4070 C.3   312  ALA312      0.1597
    200  C         26.5470   39.7940  -47.5840 C.2   312  ALA312      0.2287
    201  O         26.5800   40.7180  -46.7400 O.2   312  ALA312     -0.2864
    202  CB        24.2350   38.9510  -48.0660 C.3   312  ALA312      0.0319
@<TRIPOS>BOND
     1    98    97    1
     2    98    99    1
     3    97    94    1
     4    99    93    1
     5   126   125    2
     6    93    94    1
     7    93    87   am
     8    94    95    1
     9    91    90    1
    10   125   124    1
    11   103   102    2
    12   106   105    1
    13   106   100    1
    14    95    96    2
    15    95   100   am
    16    86    87    1
    17    86    85    1
    18    86    89    1
    19    87    88    2
    20   105   104    1
    21   100   101    1
    22   123   124    1
    23   124   127    1
    24    90    89    1
    25    90    92    1
    26   110   109    2
    27   102   101    1
    28   102   107   am
    29   112   111    1
    30   108   109    1
    31   108   111    1
    32   108   107    1
    33   127   128    1
    34   109   113   am
    35   101   104    1
    36   128   129    1
    37   115   114    1
    38   115   116    2
    39   113   114    1
    40   129   131   am
    41   129   130    2
    42   114   117    1
    43    72    70   ar
    44    72    71   ar
    45    70    68   ar
    46    71    69   ar
    47   117   118    1
    48    68    67   ar
    49    68    66   ar
    50   120   118   ar
    51   120   122   ar
    52    69    66   ar
    53    67    65   ar
    54    84    83    1
    55    66    64   ar
    56   132   133    1
    57   118   119   ar
    58    65    64   ar
    59   146   145    2
    60    64    63    1
    61   136   133    1
    62   136   137    1
    63   122   121   ar
    64    81    83   ar
    65    81    79   ar
    66    63    60    1
    67    83    82   ar
    68   133   134    1
    69   179   178    2
    70   143   134   am
    71   143   144    1
    72    62    61    2
    73    60    61    1
    74    60    59    1
    75   119   121   ar
    76   145   144    1
    77   145   151   am
    78   149   148    1
    79   152   153    1
    80   152   151    1
    81   147   148    1
    82   147   144    1
    83   137   139   ar
    84   137   138   ar
    85   134   135    2
    86   148   150    1
    87    79    78   ar
    88   153   154    2
    89    82    80   ar
    90   202   199    1
    91   178   177    1
    92   178   180   am
    93   139   141   ar
    94   138   140   ar
    95   177   174    1
    96   200   199    1
    97   200   201    2
    98   197   196    1
    99   199   198    1
   100    78    80   ar
   101    78    77    1
   102    57    58   ar
   103    57    55   ar
   104    58    56   ar
   105    73    74    1
   106   196   195    1
   107   141   142   ar
   108    74    77    1
   109    74    75    1
   110   161   155    1
   111   161   160    1
   112   140   142   ar
   113   155   156    1
   114    55    52   ar
   115   174   175    1
   116   174   173    1
   117   192   191    2
   118    56    54   ar
   119   198   191   am
   120    76    75    1
   121   175   176    2
   122   173   164   am
   123   160   159    1
   124   191   190    1
   125   195   194    1
   126   156   157    1
   127   156   159    1
   128    52    54   ar
   129    52    50   ar
   130    48    47    2
   131    54    53   ar
   132   162   157   am
   133   162   163    1
   134   187   185    1
   135   194   193    1
   136    40    39    2
   137   157   158    2
   138    35    36   ar
   139    35    33   ar
   140   164   163    1
   141   164   165    2
   142     8     9    1
   143     8     7    1
   144   166   163    1
   145   166   167    1
   146    36    34   ar
   147   190   193    1
   148   190   189    1
   149    47    46    1
   150     7     6    1
   151    53    51   ar
   152    50    49    1
   153    50    51   ar
   154    46    49    1
   155    46    45    1
   156    43    41    1
   157    33    31   ar
   158   185   186    1
   159   185   182    1
   160    34    32   ar
   161   189   183   am
   162   188   186    1
   163    39    45   am
   164    39    38    1
   165   167   168   ar
   166   167   169   ar
   167   168   170   ar
   168   183   184    2
   169   183   182    1
   170    31    32   ar
   171    31    30    1
   172    25    23   ar
   173     6     5    1
   174   182   181    1
   175    38    41    1
   176    38    37    1
   177    41    42    1
   178   170   172   ar
   179   169   171   ar
   180    24    23   ar
   181    23    22    1
   182    30    27    1
   183     5     2    1
   184    44    42    1
   185   172   171   ar
   186    29    28    2
   187    27    28    1
   188    27    26    1
   189    22    21    1
   190    15    14    1
   191     2     1    1
   192     2     3    1
   193    16    14    1
   194    20    19    2
   195    21    18    1
   196     4     3    2
   197    14    11    1
   198    19    18    1
   199    11    10    1
   200    11    12    1
   201    18    17    1
   202    12    13    2
