@<TRIPOS>MOLECULE
tmp/1lckA00.pdb
 189 185 0 0 0
SMALL
GASTEIGER

@<TRIPOS>ATOM
      1  N         21.0910   29.6740  153.0260 N.3    72  ARG72      -0.1245
      2  CA        19.7930   30.3560  153.1620 C.3    72  ARG72       0.1563
      3  C         19.7600   31.6370  154.0270 C.2    72  ARG72       0.2260
      4  O         19.2750   32.6790  153.5800 O.2    72  ARG72      -0.2867
      5  CB        18.7670   29.3440  153.6900 C.3    72  ARG72       0.0307
      6  CG        17.3040   29.7520  153.6250 C.3    72  ARG72       0.0489
      7  CD        16.6410   29.4520  154.9490 C.3    72  ARG72       0.2205
      8  NE        15.3540   28.7430  154.9050 N.pl3  72  ARG72      -0.0865
      9  CZ        14.3530   28.9920  154.0580 C.cat  72  ARG72       0.5346
     10  NH1       14.5350   28.8490  152.7460 N.pl3  72  ARG72       0.1354
     11  NH2       13.1020   28.9270  154.5100 N.pl3  72  ARG72       0.1354
     12  N         21.9310   30.3620  144.3220 N.3    92  ARG92      -0.1245
     13  CA        22.7910   29.7440  145.3220 C.3    92  ARG92       0.1563
     14  C         22.5370   28.2320  145.2590 C.2    92  ARG92       0.2260
     15  O         21.4010   27.8010  145.0170 O.2    92  ARG92      -0.2867
     16  CB        22.4060   30.2730  146.7250 C.3    92  ARG92       0.0307
     17  CG        20.9140   30.5920  146.8740 C.3    92  ARG92       0.0489
     18  CD        20.5520   31.3760  148.1480 C.3    92  ARG92       0.2205
     19  NE        20.5630   30.5180  149.3240 N.pl3  92  ARG92      -0.0865
     20  CZ        19.6600   29.5780  149.5870 C.cat  92  ARG92       0.5346
     21  NH1       18.3700   29.8670  149.5590 N.pl3  92  ARG92       0.1354
     22  NH2       20.0580   28.4760  150.1980 N.pl3  92  ARG92       0.1354
     23  N         21.5320   24.7720  146.6310 N.3    94  SER94      -0.1202
     24  CA        20.6190   24.3530  147.7040 C.3    94  SER94       0.2020
     25  C         21.4000   23.5560  148.7560 C.2    94  SER94       0.2619
     26  O         22.1060   22.5940  148.4220 O.2    94  SER94      -0.2717
     27  CB        19.5010   23.4780  147.1310 C.3    94  SER94       0.2103
     28  OG        18.2400   23.7700  147.6940 O.3    94  SER94      -0.2182
     29  N         21.3750   24.0220  150.0010 N.am   95  GLU95      -0.1965
     30  CA        22.0000   23.2650  151.0730 C.3    95  GLU95       0.1733
     31  C         21.1450   22.0450  151.4180 C.2    95  GLU95       0.2617
     32  O         21.6850   20.9800  151.7070 O.2    95  GLU95      -0.2715
     33  CB        22.2370   24.1310  152.3250 C.3    95  GLU95       0.0429
     34  CG        21.4720   25.4470  152.3900 C.3    95  GLU95       0.1163
     35  CD        21.2780   25.9670  153.8160 C.2    95  GLU95       0.3649
     36  OE1       22.2870   26.2250  154.5180 O.co2  95  GLU95      -0.2457
     37  OE2       20.1050   26.1440  154.2230 O.co2  95  GLU95      -0.2457
     38  N         19.8220   22.1800  151.3180 N.am   96  SER96      -0.1936
     39  CA        18.9340   21.0420  151.5490 C.3    96  SER96       0.2055
     40  C         18.9700   20.0470  150.3980 C.2    96  SER96       0.2643
     41  O         19.7460   19.0900  150.4150 O.2    96  SER96      -0.2714
     42  CB        17.4840   21.4880  151.7780 C.3    96  SER96       0.2130
     43  OG        17.3310   22.8880  151.6560 O.3    96  SER96      -0.2179
     44  N         18.1020   20.2560  149.4160 N.am   97  THR97      -0.1950
     45  CA        18.0620   19.4180  148.2270 C.3    97  THR97       0.1897
     46  C         19.3800   19.5300  147.4530 C.2    97  THR97       0.2313
     47  O         19.5550   20.4350  146.6300 O.2    97  THR97      -0.2863
     48  CB        16.8810   19.8340  147.3230 C.3    97  THR97       0.1794
     49  OG1       15.6460   19.4900  147.9720 O.3    97  THR97      -0.2208
     50  CG2       16.9510   19.1360  145.9700 C.3    97  THR97       0.0378
     51  N         18.6190   27.4570  144.6220 N.3   102  SER102     -0.1217
     52  CA        17.5480   28.3190  145.0480 C.3   102  SER102      0.1889
     53  C         17.7630   29.7520  144.6230 C.2   102  SER102      0.2288
     54  O         18.8790   30.1710  144.3220 O.2   102  SER102     -0.2866
     55  CB        17.3780   28.2520  146.5530 C.3   102  SER102      0.2089
     56  OG        16.6020   27.1340  146.9090 O.3   102  SER102     -0.2183
     57  N         12.6900   36.6770  150.2330 N.3   117  LYS117     -0.1231
     58  CA        11.9300   35.4900  149.8380 C.3   117  LYS117      0.1693
     59  C         12.7720   34.4580  149.0730 C.2   117  LYS117      0.2592
     60  O         13.5420   34.8210  148.1850 O.2   117  LYS117     -0.2718
     61  CB        10.7470   35.9220  148.9690 C.3   117  LYS117      0.0285
     62  CG         9.8920   37.0220  149.5830 C.3   117  LYS117      0.0035
     63  CD         8.6820   37.3310  148.7210 C.3   117  LYS117      0.0206
     64  CE         7.5660   37.9270  149.5690 C.3   117  LYS117      0.1093
     65  NZ         6.4790   38.5540  148.7650 N.3   117  LYS117     -0.1314
     66  N         12.6330   33.1780  149.4270 N.am  118  HIS118     -0.1962
     67  CA        13.3410   32.0910  148.7400 C.3   118  HIS118      0.1787
     68  C         12.4370   31.2430  147.8620 C.2   118  HIS118      0.2620
     69  O         11.3310   30.8870  148.2570 O.2   118  HIS118     -0.2715
     70  CB        14.0150   31.1620  149.7390 C.3   118  HIS118      0.0785
     71  CG        14.9960   31.8430  150.6240 C.ar  118  HIS118      0.0821
     72  ND1       16.2640   32.1920  150.2090 N.ar  118  HIS118     -0.2267
     73  CD2       14.8990   32.2480  151.9160 C.ar  118  HIS118      0.1154
     74  CE1       16.9060   32.7730  151.2040 C.ar  118  HIS118      0.1986
     75  NE2       16.1070   32.8130  152.2490 N.ar  118  HIS118     -0.2212
     76  N         12.9420   30.8580  146.7000 N.am  119  TYR119     -0.1960
     77  CA        12.2090   29.9760  145.7940 C.3   119  TYR119      0.1771
     78  C         13.0710   28.7840  145.4090 C.2   119  TYR119      0.2619
     79  O         14.3000   28.8620  145.4010 O.2   119  TYR119     -0.2715
     80  CB        11.8020   30.7090  144.5150 C.3   119  TYR119      0.0574
     81  CG        10.8760   31.8790  144.7110 C.ar  119  TYR119     -0.0198
     82  CD1       11.3750   33.1260  145.0810 C.ar  119  TYR119     -0.0009
     83  CD2        9.5150   31.7730  144.4190 C.ar  119  TYR119     -0.0009
     84  CE1       10.5440   34.2450  145.1470 C.ar  119  TYR119      0.0417
     85  CE2        8.6760   32.8850  144.4920 C.ar  119  TYR119      0.0417
     86  CZ         9.2010   34.1170  144.8630 C.ar  119  TYR119      0.1957
     87  OH         8.3840   35.2120  145.0050 O.3   119  TYR119     -0.2866
     88  N         12.4140   27.7380  144.9440 N.am  120  LYS120     -0.1977
     89  CA        13.0900   26.4940  144.6150 C.3   120  LYS120      0.1596
     90  C         13.1800   26.3210  143.0900 C.2   120  LYS120      0.2287
     91  O         12.1700   26.3480  142.3810 O.2   120  LYS120     -0.2864
     92  CB        12.3240   25.3320  145.2530 C.3   120  LYS120      0.0298
     93  CG        13.1830   24.1790  145.7180 C.3   120  LYS120      0.0038
     94  CD        13.3820   23.1540  144.6030 C.3   120  LYS120      0.0206
     95  CE        13.6820   21.7790  145.1770 C.3   120  LYS120      0.1093
     96  NZ        14.2200   20.8560  144.1460 N.3   120  LYS120     -0.1314
     97  N         13.4290   23.8760  140.4330 N.3   122  ARG122     -0.1245
     98  CA        13.3190   22.4440  140.1590 C.3   122  ARG122      0.1563
     99  C         14.0540   22.0330  138.8820 C.2   122  ARG122      0.2260
    100  O         13.9930   22.7210  137.8610 O.2   122  ARG122     -0.2867
    101  CB        11.8460   22.0200  140.0700 C.3   122  ARG122      0.0307
    102  CG        11.1340   21.9100  141.4170 C.3   122  ARG122      0.0489
    103  CD        10.8790   20.4530  141.8390 C.3   122  ARG122      0.2205
    104  NE         9.9220   20.3820  142.9470 N.pl3 122  ARG122     -0.0865
    105  CZ        10.2600   20.3750  144.2350 C.cat 122  ARG122      0.5346
    106  NH1       11.3970   19.8160  144.6240 N.pl3 122  ARG122      0.1354
    107  NH2        9.3710   20.7340  145.1480 N.pl3 122  ARG122      0.1354
    108  N         13.2600   24.9230  136.0220 N.3   130  TYR130     -0.1227
    109  CA        12.0730   25.7810  136.1360 C.3   130  TYR130      0.1736
    110  C         11.7310   26.1970  137.5570 C.2   130  TYR130      0.2595
    111  O         12.2540   25.6470  138.5140 O.2   130  TYR130     -0.2718
    112  CB        10.8360   25.1350  135.4710 C.3   130  TYR130      0.0548
    113  CG        10.2820   23.9010  136.1520 C.ar  130  TYR130     -0.0200
    114  CD1        9.3120   23.9990  137.1550 C.ar  130  TYR130     -0.0009
    115  CD2       10.7530   22.6360  135.8150 C.ar  130  TYR130     -0.0009
    116  CE1        8.8350   22.8540  137.8160 C.ar  130  TYR130      0.0417
    117  CE2       10.2800   21.4930  136.4630 C.ar  130  TYR130      0.0417
    118  CZ         9.3240   21.6030  137.4520 C.ar  130  TYR130      0.1957
    119  OH         8.8330   20.4440  138.0050 O.3   130  TYR130     -0.2866
    120  N         10.9000   27.2290  137.6610 N.am  131  ILE131     -0.1966
    121  CA        10.2430   27.6270  138.9090 C.3   131  ILE131      0.1727
    122  C          8.7100   27.4540  138.7880 C.2   131  ILE131      0.2617
    123  O          8.0680   26.9110  139.6750 O.2   131  ILE131     -0.2715
    124  CB        10.5870   29.1120  139.2640 C.3   131  ILE131      0.0290
    125  CG1       12.1040   29.3000  139.4020 C.3   131  ILE131      0.0022
    126  CG2        9.9380   29.5110  140.5740 C.3   131  ILE131      0.0023
    127  CD1       12.5630   30.7180  139.2520 C.3   131  ILE131      0.0001
    128  N          8.1330   27.8770  137.6720 N.am  132  SER132     -0.1936
    129  CA         6.7610   27.5090  137.3470 C.3   132  SER132      0.2040
    130  C          6.7640   26.5360  136.1690 C.2   132  SER132      0.2485
    131  O          7.3460   26.8330  135.1260 O.2   132  SER132     -0.2729
    132  CB         5.9440   28.7410  136.9740 C.3   132  SER132      0.2129
    133  OG         5.0280   28.4580  135.9190 O.3   132  SER132     -0.2179
    134  N          6.0620   25.3840  136.2930 N.am  133  PRO133     -0.2715
    135  CA         6.0340   24.3860  135.2140 C.3   133  PRO133      0.1536
    136  C          5.4880   24.9130  133.8920 C.2   133  PRO133      0.2598
    137  O          5.6470   24.2640  132.8670 O.2   133  PRO133     -0.2715
    138  CB         5.1660   23.2720  135.7860 C.3   133  PRO133      0.0310
    139  CG         4.3980   23.9060  136.9050 C.3   133  PRO133      0.0237
    140  CD         5.3650   24.8800  137.4880 C.3   133  PRO133      0.0939
    141  N          4.9500   26.1340  133.9190 N.am  134  ARG134     -0.1978
    142  CA         4.4540   26.8650  132.7370 C.3   134  ARG134      0.1597
    143  C          5.5440   27.3670  131.7870 C.2   134  ARG134      0.2287
    144  O          5.2650   27.7010  130.6350 O.2   134  ARG134     -0.2864
    145  CB         3.6270   28.0700  133.1840 C.3   134  ARG134      0.0334
    146  CG         2.1820   27.7770  133.4670 C.3   134  ARG134      0.0492
    147  CD         1.3660   29.0380  133.2990 C.3   134  ARG134      0.2205
    148  NE         1.5230   29.9620  134.4190 N.pl3 134  ARG134     -0.0865
    149  CZ         1.8840   31.2370  134.2920 C.cat 134  ARG134      0.5346
    150  NH1        2.3870   31.6760  133.1430 N.pl3 134  ARG134      0.1354
    151  NH2        1.8360   32.0530  135.3400 N.pl3 134  ARG134      0.1354
    152  N         13.3070   36.4270  133.6690 N.3   147  TYR147     -0.1241
    153  CA        12.6340   37.0090  134.8380 C.3   147  TYR147      0.1605
    154  C         13.0840   38.4180  135.2460 C.2   147  TYR147      0.2264
    155  O         12.3920   39.1120  136.0010 O.2   147  TYR147     -0.2867
    156  CB        12.7600   36.0740  136.0430 C.3   147  TYR147      0.0534
    157  CG        11.8870   34.8530  135.9640 C.ar  147  TYR147     -0.0201
    158  CD1       10.5010   34.9620  136.0250 C.ar  147  TYR147     -0.0009
    159  CD2       12.4480   33.5750  135.8440 C.ar  147  TYR147     -0.0009
    160  CE1        9.6840   33.8180  135.9700 C.ar  147  TYR147      0.0417
    161  CE2       11.6440   32.4230  135.7920 C.ar  147  TYR147      0.0417
    162  CZ        10.2640   32.5490  135.8550 C.ar  147  TYR147      0.1957
    163  OH         9.4600   31.4210  135.8020 O.3   147  TYR147     -0.2866
    164  N          6.3410   37.3550  135.7860 N.3   152  ASP152     -0.1225
    165  CA         5.2610   36.3610  135.6650 C.3   152  ASP152      0.1805
    166  C          5.2580   35.2490  136.7020 C.2   152  ASP152      0.2598
    167  O          6.0180   34.2890  136.5980 O.2   152  ASP152     -0.2718
    168  CB         5.2530   35.7490  134.2520 C.3   152  ASP152      0.1424
    169  CG         3.8380   35.6080  133.6640 C.2   152  ASP152      0.3668
    170  OD1        2.8400   35.6920  134.4230 O.co2 152  ASP152     -0.2456
    171  OD2        3.7130   35.3910  132.4370 O.co2 152  ASP152     -0.2456
    172  N          4.4320   35.4140  137.7320 N.am  153  GLY153     -0.1942
    173  CA         4.4010   34.4610  138.8330 C.3   153  GLY153      0.2014
    174  C          5.2100   34.8650  140.0610 C.2   153  GLY153      0.2639
    175  O          4.7010   34.8150  141.1890 O.2   153  GLY153     -0.2714
    176  N          6.4780   35.2180  139.8500 N.am  154  LEU154     -0.1963
    177  CA         7.3360   35.7060  140.9340 C.3   154  LEU154      0.1728
    178  C          6.7680   36.9490  141.6110 C.2   154  LEU154      0.2616
    179  O          6.2110   37.8270  140.9560 O.2   154  LEU154     -0.2715
    180  CB         8.7380   36.0220  140.4160 C.3   154  LEU154      0.0311
    181  CG         9.5530   34.9140  139.7550 C.3   154  LEU154      0.0022
    182  CD1       10.9220   35.4660  139.4490 C.3   154  LEU154      0.0001
    183  CD2        9.6600   33.6960  140.6570 C.3   154  LEU154      0.0001
    184  N          6.9970   37.0520  142.9160 N.am  155  CYS155     -0.1968
    185  CA         6.3890   38.1000  143.7290 C.3   155  CYS155      0.1712
    186  C          7.1240   39.4340  143.6380 C.2   155  CYS155      0.2296
    187  O          6.8240   40.3550  144.3990 O.2   155  CYS155     -0.2864
    188  CB         6.3120   37.6600  145.1940 C.3   155  CYS155      0.0983
    189  SG         5.8600   35.9160  145.4050 S.3   155  CYS155     -0.0798
@<TRIPOS>BOND
     1   144   143    2
     2   143   142    1
     3   171   169   ar
     4   142   145    1
     5   142   141    1
     6   137   136    2
     7   150   149    1
     8   145   146    1
     9   147   146    1
    10   147   148    1
    11   169   168    1
    12   169   170   ar
    13   152   153    1
    14   136   141   am
    15   136   135    1
    16   168   165    1
    17   149   148    2
    18   149   151    1
    19   153   154    1
    20   153   156    1
    21   131   130    2
    22   135   138    1
    23   135   134    1
    24   154   155    2
    25   112   109    1
    26   112   113    1
    27   165   164    1
    28   165   166    1
    29   138   139    1
    30   161   159   ar
    31   161   162   ar
    32   163   162    1
    33   115   113   ar
    34   115   117   ar
    35   159   157   ar
    36   162   160   ar
    37   133   132    1
    38   157   158   ar
    39   157   156    1
    40   160   158   ar
    41   108   109    1
    42   109   110    1
    43   113   114   ar
    44   130   134   am
    45   130   129    1
    46   134   140    1
    47   117   118   ar
    48   167   166    2
    49   166   172   am
    50   139   140    1
    51   132   129    1
    52   114   116   ar
    53   129   128    1
    54   118   116   ar
    55   118   119    1
    56   110   120   am
    57   110   111    2
    58   120   121    1
    59   128   122   am
    60   172   173    1
    61   100    99    2
    62   122   121    1
    63   122   123    2
    64   173   174    1
    65    99    98    1
    66   121   124    1
    67   127   125    1
    68   124   125    1
    69   124   126    1
    70   182   181    1
    71   181   180    1
    72   181   183    1
    73   176   174   am
    74   176   177    1
    75   174   175    2
    76   101    98    1
    77   101   102    1
    78    98    97    1
    79   180   177    1
    80   177   178    1
    81   179   178    2
    82   102   103    1
    83   178   184   am
    84   103   104    1
    85    91    90    2
    86   184   185    1
    87   104   105    2
    88    90    89    1
    89   186   185    1
    90   186   187    2
    91   185   188    1
    92    96    95    1
    93   105   106    1
    94   105   107    1
    95    54    53    2
    96    12    13    1
    97    83    85   ar
    98    83    81   ar
    99    85    86   ar
   100    80    81    1
   101    80    77    1
   102    94    95    1
   103    94    93    1
   104    89    88    1
   105    89    92    1
   106    51    52    1
   107    53    52    1
   108    81    82   ar
   109    86    87    1
   110    86    84   ar
   111    88    78   am
   112    15    14    2
   113    52    55    1
   114    82    84   ar
   115   188   189    1
   116    92    93    1
   117    14    13    1
   118    13    16    1
   119    79    78    2
   120    78    77    1
   121    77    76    1
   122    50    48    1
   123    55    56    1
   124    47    46    2
   125    23    24    1
   126    76    68   am
   127    16    17    1
   128    17    18    1
   129    27    28    1
   130    27    24    1
   131    48    49    1
   132    48    45    1
   133    46    45    1
   134    24    25    1
   135    68    69    2
   136    68    67    1
   137    18    19    1
   138    60    59    2
   139    45    44    1
   140    26    25    2
   141    63    64    1
   142    63    62    1
   143    67    66    1
   144    67    70    1
   145    25    29   am
   146    65    64    1
   147    61    62    1
   148    61    58    1
   149    59    66   am
   150    59    58    1
   151    19    20    2
   152    44    40   am
   153    21    20    1
   154    20    22    1
   155    70    71    1
   156    58    57    1
   157    29    30    1
   158    72    71   ar
   159    72    74   ar
   160    40    41    2
   161    40    39    1
   162    71    73   ar
   163    30    31    1
   164    30    33    1
   165    74    75   ar
   166    38    31   am
   167    38    39    1
   168    31    32    2
   169    39    42    1
   170    43    42    1
   171    73    75   ar
   172    33    34    1
   173    34    35    1
   174    10     9    1
   175     1     2    1
   176     2     5    1
   177     2     3    1
   178     4     3    2
   179     6     5    1
   180     6     7    1
   181    35    37   ar
   182    35    36   ar
   183     9    11    1
   184     9     8    2
   185     8     7    1
