@<TRIPOS>MOLECULE
tmp/1lcoA02.pdb
 114 110 0 0 0
SMALL
GASTEIGER

@<TRIPOS>ATOM
      1  N         72.7970   47.2670   16.0170 N.3    34  HIS34      -0.1227
      2  CA        72.2390   46.7060   14.8030 C.3    34  HIS34       0.1737
      3  C         71.5160   47.7880   14.0190 C.2    34  HIS34       0.2438
      4  O         70.7160   48.4600   14.6620 O.2    34  HIS34      -0.2733
      5  CB        71.2610   45.6090   15.1680 C.3    34  HIS34       0.0758
      6  CG        70.6900   44.9770   13.9120 C.ar   34  HIS34       0.0818
      7  ND1       69.3880   45.1830   13.4240 N.ar   34  HIS34      -0.2268
      8  CD2       71.4570   44.1380   13.0850 C.ar   34  HIS34       0.1154
      9  CE1       69.4050   44.4560   12.2840 C.ar   34  HIS34       0.1986
     10  NE2       70.5530   43.8480   12.0650 N.ar   34  HIS34      -0.2212
     11  N         71.6820   47.9870   12.6930 N.am   35  PRO35      -0.2718
     12  CA        71.0040   49.0130   11.8950 C.3    35  PRO35       0.1535
     13  C         69.4880   49.1030   12.0760 C.2    35  PRO35       0.2599
     14  O         68.9570   50.1550   12.4480 O.2    35  PRO35      -0.2715
     15  CB        71.4180   48.6870   10.4750 C.3    35  PRO35       0.0310
     16  CG        72.8470   48.2770   10.6860 C.3    35  PRO35       0.0237
     17  CD        72.6770   47.3140   11.8530 C.3    35  PRO35       0.0939
     18  N         68.7600   47.9940   11.9050 N.am   36  GLY36      -0.1955
     19  CA        67.3110   48.0380   12.0710 C.3    36  GLY36       0.1869
     20  C         66.8370   48.1910   13.5200 C.2    36  GLY36       0.2309
     21  O         65.6510   48.4240   13.7710 O.2    36  GLY36      -0.2863
     22  N         58.6490   49.0620    4.3640 N.3   134  PHE134     -0.1241
     23  CA        59.9600   49.6280    4.4480 C.3   134  PHE134      0.1605
     24  C         60.1490   50.5670    3.2730 C.2   134  PHE134      0.2264
     25  O         60.5750   51.7100    3.4270 O.2   134  PHE134     -0.2867
     26  CB        60.9510   48.4530    4.4850 C.3   134  PHE134      0.0534
     27  CG        62.3940   48.8750    4.6180 C.ar  134  PHE134     -0.0203
     28  CD1       62.8790   49.2630    5.8320 C.ar  134  PHE134     -0.0042
     29  CD2       63.1970   48.9160    3.4950 C.ar  134  PHE134     -0.0042
     30  CE1       64.1830   49.7060    5.9000 C.ar  134  PHE134     -0.0003
     31  CE2       64.4970   49.3570    3.5550 C.ar  134  PHE134     -0.0003
     32  CZ        64.9890   49.7570    4.7730 C.ar  134  PHE134     -0.0000
     33  N         68.4700   51.3740    0.8400 N.3   189  ALA189     -0.1231
     34  CA        68.9680   50.2510    1.5850 C.3   189  ALA189      0.1694
     35  C         68.1790   49.0130    1.1670 C.2   189  ALA189      0.2591
     36  O         67.2270   49.1050    0.4170 O.2   189  ALA189     -0.2718
     37  CB        68.7650   50.5530    3.0300 C.3   189  ALA189      0.0304
     38  N         68.5620   47.8350    1.6200 N.am  190  LEU190     -0.1980
     39  CA        67.9350   46.5650    1.3150 C.3   190  LEU190      0.1596
     40  C         67.1000   46.3480    0.0410 C.2   190  LEU190      0.2287
     41  O         65.9440   45.9180    0.1450 O.2   190  LEU190     -0.2864
     42  CB        67.0870   46.1430    2.5220 C.3   190  LEU190      0.0297
     43  CG        67.5860   46.4160    3.9330 C.3   190  LEU190      0.0022
     44  CD1       66.4200   46.3110    4.9120 C.3   190  LEU190      0.0001
     45  CD2       68.7430   45.4800    4.2320 C.3   190  LEU190      0.0001
     46  N         74.3270   50.4240    3.2430 N.3   221  LEU221     -0.1245
     47  CA        73.5570   49.4360    3.9560 C.3   221  LEU221      0.1561
     48  C         72.7460   48.7410    2.8810 C.2   221  LEU221      0.2260
     49  O         71.5070   48.7230    2.8620 O.2   221  LEU221     -0.2867
     50  CB        72.6820   50.1670    4.9630 C.3   221  LEU221      0.0270
     51  CG        72.9910   50.0060    6.4590 C.3   221  LEU221      0.0019
     52  CD1       74.4720   50.1050    6.7590 C.3   221  LEU221      0.0001
     53  CD2       72.2940   51.1130    7.2150 C.3   221  LEU221      0.0001
     54  N         77.7180   56.1230    5.2080 N.3   245  TYR245     -0.1241
     55  CA        77.3630   56.6090    6.5270 C.3   245  TYR245      0.1605
     56  C         78.7130   56.5580    7.3150 C.2   245  TYR245      0.2264
     57  O         79.3820   55.5050    7.3050 O.2   245  TYR245     -0.2867
     58  CB        76.3510   55.6810    7.1680 C.3   245  TYR245      0.0534
     59  CG        74.9100   55.8520    6.7730 C.ar  245  TYR245     -0.0201
     60  CD1       74.2910   57.0630    6.8760 C.ar  245  TYR245     -0.0009
     61  CD2       74.2260   54.7730    6.3120 C.ar  245  TYR245     -0.0009
     62  CE1       72.9790   57.1880    6.4940 C.ar  245  TYR245      0.0417
     63  CE2       72.9160   54.8820    5.9480 C.ar  245  TYR245      0.0417
     64  CZ        72.2990   56.0920    6.0300 C.ar  245  TYR245      0.1957
     65  OH        70.9880   56.2290    5.5950 O.3   245  TYR245     -0.2866
     66  N         67.9790   57.2770   13.4640 N.3   277  LEU277     -0.1245
     67  CA        67.0720   56.8940   12.3950 C.3   277  LEU277      0.1561
     68  C         65.6840   57.4370   12.6730 C.2   277  LEU277      0.2260
     69  O         65.3410   57.6320   13.8410 O.2   277  LEU277     -0.2867
     70  CB        67.0970   55.3580   12.2480 C.3   277  LEU277      0.0270
     71  CG        68.0390   54.9040   11.0780 C.3   277  LEU277      0.0019
     72  CD1       69.5060   55.3290   11.2850 C.3   277  LEU277      0.0001
     73  CD2       68.0010   53.4170   10.9750 C.3   277  LEU277      0.0001
     74  N         59.5790   55.3500   11.6690 N.3   280  ARG280     -0.1245
     75  CA        58.6550   55.0130   10.6120 C.3   280  ARG280      0.1563
     76  C         57.6550   54.0250   11.1240 C.2   280  ARG280      0.2260
     77  O         57.8020   52.7970   11.1840 O.2   280  ARG280     -0.2867
     78  CB        59.3140   54.4000    9.4510 C.3   280  ARG280      0.0307
     79  CG        60.2020   55.4550    8.8560 C.3   280  ARG280      0.0489
     80  CD        60.6030   54.8760    7.5370 C.3   280  ARG280      0.2205
     81  NE        60.9120   53.4590    7.5550 N.pl3 280  ARG280     -0.0865
     82  CZ        62.1270   53.0520    7.8530 C.cat 280  ARG280      0.5346
     83  NH1       63.0840   53.9490    8.1770 N.pl3 280  ARG280      0.1354
     84  NH2       62.3520   51.7410    7.8390 N.pl3 280  ARG280      0.1354
     85  N         66.0120   62.8220    2.8920 N.3   342  HIS342     -0.1241
     86  CA        66.0250   61.3880    2.9540 C.3   342  HIS342      0.1621
     87  C         64.7030   60.7810    2.6110 C.2   342  HIS342      0.2264
     88  O         64.3490   59.7750    3.2060 O.2   342  HIS342     -0.2867
     89  CB        66.4700   60.9680    4.3270 C.3   342  HIS342      0.0745
     90  CG        67.2260   59.6500    4.4270 C.ar  342  HIS342      0.0817
     91  ND1       68.5050   59.4930    4.7330 N.ar  342  HIS342     -0.2268
     92  CD2       66.6840   58.3980    4.3170 C.ar  342  HIS342      0.1154
     93  CE1       68.7490   58.2070    4.8290 C.ar  342  HIS342      0.1986
     94  NE2       67.6530   57.5640    4.5770 N.ar  342  HIS342     -0.2212
     95  N         61.7510   60.5880    5.4730 N.3   345  ARG345     -0.1231
     96  CA        61.8330   59.4980    6.4030 C.3   345  ARG345      0.1694
     97  C         62.6480   59.9530    7.5870 C.2   345  ARG345      0.2591
     98  O         62.9170   59.2010    8.5090 O.2   345  ARG345     -0.2718
     99  CB        62.5460   58.3100    5.8450 C.3   345  ARG345      0.0321
    100  CG        62.2720   58.0740    4.3870 C.3   345  ARG345      0.0489
    101  CD        61.9260   56.6750    3.9880 C.3   345  ARG345      0.2205
    102  NE        62.8870   55.6030    4.2160 N.pl3 345  ARG345     -0.0865
    103  CZ        62.3730   54.3600    4.2520 C.cat 345  ARG345      0.5346
    104  NH1       61.0630   54.1380    4.0670 N.pl3 345  ARG345      0.1354
    105  NH2       63.1360   53.2980    4.4600 N.pl3 345  ARG345      0.1354
    106  N         63.0310   61.1930    7.7160 N.am  346  GLN346     -0.1979
    107  CA        63.8610   61.4970    8.8360 C.3   346  GLN346      0.1601
    108  C         63.1160   62.5110    9.7190 C.2   346  GLN346      0.2287
    109  O         62.2310   62.0670   10.4690 O.2   346  GLN346     -0.2864
    110  CB        65.1640   61.9350    8.1770 C.3   346  GLN346      0.0394
    111  CG        66.2780   61.5350    9.0870 C.3   346  GLN346      0.0908
    112  CD        66.4050   60.0390    9.2650 C.2   346  GLN346      0.2608
    113  OE1       66.1370   59.2640    8.3700 O.2   346  GLN346     -0.2717
    114  NE2       66.8220   59.4940   10.3790 N.am  346  GLN346     -0.0878
@<TRIPOS>BOND
     1    40    41    2
     2    40    39    1
     3    36    35    2
     4    33    34    1
     5    35    34    1
     6    35    38   am
     7    39    38    1
     8    39    42    1
     9    34    37    1
    10    42    43    1
    11    87    86    1
    12    87    88    2
    13    49    48    2
    14    48    47    1
    15    85    86    1
    16    86    89    1
    17    46    47    1
    18    24    25    2
    19    24    23    1
    20    29    31   ar
    21    29    27   ar
    22    31    32   ar
    23    43    45    1
    24    43    44    1
    25    47    50    1
    26   101   102    1
    27   101   100    1
    28   104   103    1
    29   102   103    2
    30   103   105    1
    31    92    90   ar
    32    92    94   ar
    33    89    90    1
    34    22    23    1
    35   100    99    1
    36    90    91   ar
    37    23    26    1
    38    26    27    1
    39    94    93   ar
    40    27    28   ar
    41    91    93   ar
    42    32    30   ar
    43    50    51    1
    44    54    55    1
    45    95    96    1
    46    65    64    1
    47    28    30   ar
    48    99    96    1
    49    63    64   ar
    50    63    61   ar
    51    64    62   ar
    52    61    59   ar
    53    96    97    1
    54    51    52    1
    55    51    53    1
    56    62    60   ar
    57    55    58    1
    58    55    56    1
    59    59    60   ar
    60    59    58    1
    61    57    56    2
    62    80    81    1
    63    80    79    1
    64    81    82    2
    65    97   106   am
    66    97    98    2
    67   106   107    1
    68    84    82    1
    69    82    83    1
    70   110   107    1
    71   110   111    1
    72   113   112    2
    73   107   108    1
    74    79    78    1
    75   111   112    1
    76   112   114   am
    77    78    75    1
    78   108   109    2
    79    15    16    1
    80    15    12    1
    81    75    76    1
    82    75    74    1
    83    16    17    1
    84    73    71    1
    85    71    72    1
    86    71    70    1
    87    76    77    2
    88    17    11    1
    89    12    13    1
    90    12    11    1
    91    18    19    1
    92    18    13   am
    93    10     9   ar
    94    10     8   ar
    95    19    20    1
    96    13    14    2
    97    70    67    1
    98     9     7   ar
    99    67    68    1
   100    67    66    1
   101    68    69    2
   102    11     3   am
   103     8     6   ar
   104     7     6   ar
   105    20    21    2
   106     6     5    1
   107     3     4    2
   108     3     2    1
   109     2     5    1
   110     2     1    1
