@<TRIPOS>MOLECULE
tmp/1lcpA00.pdb
 126 116 0 0 0
SMALL
GASTEIGER

@<TRIPOS>ATOM
      1  N         -2.3600   50.8310   52.8300 N.3   250  LYS250     -0.1245
      2  CA        -2.0640   52.2770   52.9090 C.3   250  LYS250      0.1561
      3  C         -3.2970   53.0290   53.4610 C.2   250  LYS250      0.2260
      4  O         -4.3800   52.9810   52.8650 O.2   250  LYS250     -0.2867
      5  CB        -1.7060   52.8220   51.5070 C.3   250  LYS250      0.0271
      6  CG        -1.5310   54.3440   51.4300 C.3   250  LYS250      0.0035
      7  CD        -1.3590   54.8310   49.9780 C.3   250  LYS250      0.0206
      8  CE        -1.4050   56.3730   49.8670 C.3   250  LYS250      0.1093
      9  NZ        -1.2480   56.8640   48.4470 N.3   250  LYS250     -0.1314
     10  N         -5.2200   62.9830   51.3000 N.3   255  ASP255     -0.1239
     11  CA        -3.9450   63.3290   50.6840 C.3   255  ASP255      0.1674
     12  C         -4.0200   64.6570   49.9340 C.2   255  ASP255      0.2266
     13  O         -4.5660   64.7160   48.8200 O.2   255  ASP255     -0.2867
     14  CB        -3.5170   62.2150   49.7080 C.3   255  ASP255      0.1410
     15  CG        -2.0870   62.3960   49.1730 C.2   255  ASP255      0.3668
     16  OD1       -1.3290   63.2690   49.6790 O.co2 255  ASP255     -0.2456
     17  OD2       -1.7290   61.6560   48.2340 O.co2 255  ASP255     -0.2456
     18  N         -1.1300   69.2450   45.7460 N.3   262  LYS262     -0.1245
     19  CA        -1.8860   68.7890   44.5800 C.3   262  LYS262      0.1561
     20  C         -2.6710   69.9370   43.9720 C.2   262  LYS262      0.2260
     21  O         -2.8830   70.9660   44.6240 O.2   262  LYS262     -0.2867
     22  CB        -2.9010   67.7180   44.9880 C.3   262  LYS262      0.0271
     23  CG        -2.3040   66.3730   45.3400 C.3   262  LYS262      0.0035
     24  CD        -3.4110   65.3520   45.6120 C.3   262  LYS262      0.0206
     25  CE        -2.8490   63.9870   46.0050 C.3   262  LYS262      0.1093
     26  NZ        -1.9520   63.4150   44.9640 N.3   262  LYS262     -0.1314
     27  N         -9.4240   62.3060   47.0560 N.3   270  MET270     -0.1245
     28  CA        -8.3250   61.8840   47.9110 C.3   270  MET270      0.1570
     29  C         -8.7690   61.4660   49.3240 C.2   270  MET270      0.2261
     30  O         -7.9450   61.0280   50.1300 O.2   270  MET270     -0.2867
     31  CB        -7.1910   62.9360   47.9230 C.3   270  MET270      0.0387
     32  CG        -6.4930   63.1190   46.5450 C.3   270  MET270      0.0595
     33  SD        -5.7470   61.5620   45.8940 S.3   270  MET270     -0.1393
     34  CE        -6.9580   61.0690   44.7140 C.3   270  MET270      0.0692
     35  N         -7.9070   57.8870   49.7680 N.3   273  ASP273     -0.1239
     36  CA        -6.5000   57.4710   49.7260 C.3   273  ASP273      0.1674
     37  C         -6.1610   56.4540   50.8320 C.2   273  ASP273      0.2266
     38  O         -4.9950   56.0940   51.0420 O.2   273  ASP273     -0.2867
     39  CB        -5.5610   58.6780   49.7770 C.3   273  ASP273      0.1410
     40  CG        -4.2300   58.4150   49.0730 C.2   273  ASP273      0.3668
     41  OD1       -4.1760   57.5850   48.1290 O.co2 273  ASP273     -0.2456
     42  OD2       -3.2350   59.0570   49.4610 O.co2 273  ASP273     -0.2456
     43  N          4.3530   64.4220   48.0800 N.3   332  ASP332     -0.1225
     44  CA         3.1070   63.8000   47.6140 C.3   332  ASP332      0.1805
     45  C          3.2870   62.3110   47.2460 C.2   332  ASP332      0.2598
     46  O          2.3450   61.6340   46.8320 O.2   332  ASP332     -0.2718
     47  CB         2.5390   64.6130   46.4430 C.3   332  ASP332      0.1424
     48  CG         1.0820   64.2810   46.1270 C.2   332  ASP332      0.3668
     49  OD1        0.3740   63.6930   46.9740 O.co2 332  ASP332     -0.2456
     50  OD2        0.6380   64.6500   45.0170 O.co2 332  ASP332     -0.2456
     51  N          4.5150   61.8110   47.3250 N.am  333  ALA333     -0.1966
     52  CA         4.7570   60.3880   47.0740 C.3   333  ALA333      0.1728
     53  C          4.8310   59.8370   48.5000 C.2   333  ALA333      0.2616
     54  O          5.8170   59.2090   48.9060 O.2   333  ALA333     -0.2715
     55  CB         6.0840   60.1830   46.3300 C.3   333  ALA333      0.0334
     56  N          3.7640   60.0740   49.2550 N.am  334  GLU334     -0.1963
     57  CA         3.7170   59.6790   50.6570 C.3   334  GLU334      0.1733
     58  C          3.3170   58.2470   50.9740 C.2   334  GLU334      0.2617
     59  O          3.6470   57.7400   52.0550 O.2   334  GLU334     -0.2715
     60  CB         2.8330   60.6580   51.4430 C.3   334  GLU334      0.0429
     61  CG         1.3240   60.3570   51.4590 C.3   334  GLU334      0.1163
     62  CD         0.6620   60.4030   50.0870 C.2   334  GLU334      0.3649
     63  OE1        1.0350   61.2620   49.2660 O.co2 334  GLU334     -0.2457
     64  OE2       -0.2540   59.5830   49.8600 O.co2 334  GLU334     -0.2457
     65  N          2.5680   57.6180   50.0720 N.am  335  GLY335     -0.1940
     66  CA         2.1240   56.2540   50.2990 C.3   335  GLY335      0.2014
     67  C          3.2810   55.2900   50.4840 C.2   335  GLY335      0.2638
     68  O          3.2840   54.4700   51.4090 O.2   335  GLY335     -0.2714
     69  N          4.2940   55.4090   49.6350 N.am  336  ARG336     -0.1977
     70  CA         5.4420   54.5210   49.7480 C.3   336  ARG336      0.1597
     71  C          6.2300   54.7670   51.0430 C.2   336  ARG336      0.2287
     72  O          6.8360   53.8430   51.5910 O.2   336  ARG336     -0.2864
     73  CB         6.3270   54.6160   48.5030 C.3   336  ARG336      0.0334
     74  CG         7.0660   55.9040   48.3140 C.3   336  ARG336      0.0492
     75  CD         7.6030   55.9850   46.8800 C.3   336  ARG336      0.2205
     76  NE         6.5430   56.3440   45.9390 N.pl3 336  ARG336     -0.0865
     77  CZ         6.6890   56.4240   44.6170 C.cat 336  ARG336      0.5346
     78  NH1        7.8480   56.1290   44.0310 N.pl3 336  ARG336      0.1354
     79  NH2        5.6560   56.7790   43.8710 N.pl3 336  ARG336      0.1354
     80  N         -3.6650   52.6760   47.0970 N.3   359  THR359     -0.1203
     81  CA        -4.0860   53.5600   46.0090 C.3   359  THR359      0.1994
     82  C         -2.7560   54.3100   45.8060 C.2   359  THR359      0.2618
     83  O         -2.6300   55.4920   46.1210 O.2   359  THR359     -0.2717
     84  CB        -5.2120   54.5180   46.5230 C.3   359  THR359      0.1784
     85  OG1       -4.8690   55.0130   47.8260 O.3   359  THR359     -0.2211
     86  CG2       -6.5550   53.7730   46.6190 C.3   359  THR359      0.0376
     87  N         -1.7520   53.5890   45.3060 N.am  360  LEU360     -0.1965
     88  CA        -0.3990   54.1320   45.2080 C.3   360  LEU360      0.1728
     89  C          0.0210   55.1520   44.1600 C.2   360  LEU360      0.2617
     90  O          0.7220   56.1160   44.4930 O.2   360  LEU360     -0.2715
     91  CB         0.6250   52.9840   45.2380 C.3   360  LEU360      0.0311
     92  CG         2.0250   53.3540   45.7620 C.3   360  LEU360      0.0022
     93  CD1        1.9330   53.7100   47.2460 C.3   360  LEU360      0.0001
     94  CD2        3.0140   52.1980   45.5710 C.3   360  LEU360      0.0001
     95  N         -0.3530   54.9480   42.9010 N.am  361  THR361     -0.1937
     96  CA         0.1030   55.8750   41.8690 C.3   361  THR361      0.2028
     97  C         -0.9080   56.2780   40.7970 C.2   361  THR361      0.2642
     98  O         -1.7250   55.4740   40.3600 O.2   361  THR361     -0.2714
     99  CB         1.3350   55.2740   41.1160 C.3   361  THR361      0.1808
    100  OG1        0.9290   54.1000   40.3920 O.3   361  THR361     -0.2208
    101  CG2        2.4880   54.9190   42.0930 C.3   361  THR361      0.0379
    102  N         -0.8310   57.5290   40.3610 N.am  362  GLY362     -0.1954
    103  CA        -1.6960   57.9580   39.2750 C.3   362  GLY362      0.1869
    104  C         -1.2640   57.1940   38.0280 C.2   362  GLY362      0.2309
    105  O         -2.0710   56.9140   37.1350 O.2   362  GLY362     -0.2863
    106  N         -3.2620   54.2470   37.1560 N.3   365  ASP365     -0.1239
    107  CA        -4.5240   54.5980   36.5040 C.3   365  ASP365      0.1674
    108  C         -4.2900   54.8460   34.9970 C.2   365  ASP365      0.2266
    109  O         -5.0830   54.4320   34.1510 O.2   365  ASP365     -0.2867
    110  CB        -5.1530   55.8290   37.1450 C.3   365  ASP365      0.1410
    111  CG        -6.4860   56.1770   36.5130 C.2   365  ASP365      0.3668
    112  OD1       -7.4060   55.3380   36.5520 O.co2 365  ASP365     -0.2456
    113  OD2       -6.6010   57.2630   35.9230 O.co2 365  ASP365     -0.2456
    114  N         -5.0320   52.0970   42.7020 N.3   451  ALA451     -0.1245
    115  CA        -5.3660   53.4760   42.3390 C.3   451  ALA451      0.1562
    116  C         -6.3700   53.5780   41.1860 C.2   451  ALA451      0.2260
    117  O         -7.2950   54.3910   41.2330 O.2   451  ALA451     -0.2867
    118  CB        -4.1020   54.2480   42.0020 C.3   451  ALA451      0.0290
    119  N        -10.1190   52.6970   42.2190 N.3   454  MET454     -0.1245
    120  CA       -10.6240   53.4230   43.3840 C.3   454  MET454      0.1570
    121  C        -12.1100   53.7860   43.2080 C.2   454  MET454      0.2261
    122  O        -12.9060   53.6840   44.1520 O.2   454  MET454     -0.2867
    123  CB        -9.8240   54.7140   43.6030 C.3   454  MET454      0.0387
    124  CG       -10.3950   55.6250   44.7000 C.3   454  MET454      0.0595
    125  SD        -9.4620   57.1420   45.0560 S.3   454  MET454     -0.1393
    126  CE       -10.1140   58.2180   43.8440 C.3   454  MET454      0.0692
@<TRIPOS>BOND
     1   109   108    2
     2   108   107    1
     3   113   111   ar
     4   107   110    1
     5   107   106    1
     6   111   112   ar
     7   111   110    1
     8   105   104    2
     9   104   103    1
    10   103   102    1
    11    98    97    2
    12   102    97   am
    13   100    99    1
    14    97    96    1
    15    99    96    1
    16    99   101    1
    17   116   117    2
    18   116   115    1
    19    96    95    1
    20   118   115    1
    21   119   120    1
    22   115   114    1
    23    95    89   am
    24   121   120    1
    25   121   122    2
    26   120   123    1
    27   123   124    1
    28   126   125    1
    29    79    77    1
    30    20    19    1
    31    20    21    2
    32    78    77    1
    33    89    90    2
    34    89    88    1
    35    19    22    1
    36    19    18    1
    37    77    76    2
    38   124   125    1
    39    34    33    1
    40    26    25    1
    41    22    23    1
    42    50    48   ar
    43    88    91    1
    44    88    87    1
    45    91    92    1
    46    87    82   am
    47    23    24    1
    48    94    92    1
    49    24    25    1
    50    92    93    1
    51    82    81    1
    52    82    83    2
    53    33    32    1
    54    76    75    1
    55    81    84    1
    56    81    80    1
    57    48    47    1
    58    48    49   ar
    59    55    52    1
    60    47    44    1
    61    84    86    1
    62    84    85    1
    63    32    31    1
    64    46    45    2
    65    75    74    1
    66    27    28    1
    67    52    51    1
    68    52    53    1
    69    45    51   am
    70    45    44    1
    71    44    43    1
    72    28    31    1
    73    28    29    1
    74    41    40   ar
    75    17    15   ar
    76    74    73    1
    77     9     8    1
    78    53    54    2
    79    53    56   am
    80    73    70    1
    81    13    12    2
    82    40    42   ar
    83    40    39    1
    84    15    16   ar
    85    15    14    1
    86    56    57    1
    87    63    62   ar
    88    29    30    2
    89    69    70    1
    90    69    67   am
    91    14    11    1
    92    36    35    1
    93    36    39    1
    94    36    37    1
    95    70    71    1
    96    64    62   ar
    97     8     7    1
    98    12    11    1
    99     7     6    1
   100    65    66    1
   101    65    58   am
   102    62    61    1
   103    66    67    1
   104    67    68    2
   105    57    58    1
   106    57    60    1
   107    11    10    1
   108    37    38    2
   109    58    59    2
   110    71    72    2
   111     6     5    1
   112    60    61    1
   113     5     2    1
   114     1     2    1
   115     4     3    2
   116     2     3    1
