@<TRIPOS>MOLECULE
tmp/1lcsB01.pdb
 115 108 0 0 0
SMALL
GASTEIGER

@<TRIPOS>ATOM
      1  N          9.4110   35.4320   93.6740 N.3    20  ALA20      -0.1231
      2  CA        10.7830   35.8900   93.8640 C.3    20  ALA20       0.1694
      3  C         11.5960   35.3250   92.7100 C.2    20  ALA20       0.2592
      4  O         12.4280   36.0140   92.1270 O.2    20  ALA20      -0.2718
      5  CB        11.3370   35.3860   95.1920 C.3    20  ALA20       0.0304
      6  N         11.3440   34.0610   92.3870 N.am   21  ASN21      -0.1960
      7  CA        12.0380   33.3970   91.2970 C.3    21  ASN21       0.1819
      8  C         11.3710   32.0700   90.9990 C.2    21  ASN21       0.2621
      9  O         10.5850   31.5600   91.7920 O.2    21  ASN21      -0.2715
     10  CB        13.5110   33.1490   91.6490 C.3    21  ASN21       0.1195
     11  CG        14.3990   33.0490   90.4120 C.2    21  ASN21       0.2630
     12  OD1       13.9490   32.6080   89.3550 O.2    21  ASN21      -0.2716
     13  ND2       15.6630   33.4480   90.5560 N.am   21  ASN21      -0.0877
     14  N         11.6880   31.5110   89.8440 N.am   22  ALA22      -0.1963
     15  CA        11.1310   30.2330   89.4370 C.3    22  ALA22       0.1728
     16  C         12.1560   29.5380   88.5540 C.2    22  ALA22       0.2616
     17  O         12.9230   30.1940   87.8490 O.2    22  ALA22      -0.2715
     18  CB         9.8330   30.4510   88.6770 C.3    22  ALA22       0.0334
     19  N         12.1780   28.2110   88.6070 N.am   23  THR23      -0.1951
     20  CA        13.1100   27.4290   87.8040 C.3    23  THR23       0.1897
     21  C         12.4200   26.1830   87.2560 C.2    23  THR23       0.2313
     22  O         11.8210   25.4180   88.0150 O.2    23  THR23      -0.2863
     23  CB        14.3330   27.0050   88.6430 C.3    23  THR23       0.1794
     24  OG1       14.9160   28.1660   89.2460 O.3    23  THR23      -0.2208
     25  CG2       15.3790   26.3290   87.7700 C.3    23  THR23       0.0378
     26  N         18.7440   23.3880   92.7580 N.3    35  THR35      -0.1218
     27  CA        19.2210   24.3510   93.7300 C.3    35  THR35       0.1862
     28  C         18.5100   25.6460   93.3410 C.2    35  THR35       0.2287
     29  O         18.5650   26.0680   92.1890 O.2    35  THR35      -0.2866
     30  CB        20.7520   24.5430   93.6350 C.3    35  THR35       0.1770
     31  OG1       21.4120   23.4210   94.2360 O.3    35  THR35      -0.2211
     32  CG2       21.1780   25.8140   94.3520 C.3    35  THR35       0.0375
     33  N         17.7080   29.7920   93.6570 N.3    37  TYR37      -0.1227
     34  CA        18.4230   31.0400   93.9020 C.3    37  TYR37       0.1736
     35  C         17.4380   32.2070   93.8770 C.2    37  TYR37       0.2595
     36  O         16.5650   32.2590   93.0210 O.2    37  TYR37      -0.2718
     37  CB        19.4870   31.2760   92.8280 C.3    37  TYR37       0.0548
     38  CG        20.5340   30.1890   92.6820 C.ar   37  TYR37      -0.0200
     39  CD1       20.2820   29.0400   91.9210 C.ar   37  TYR37      -0.0009
     40  CD2       21.8000   30.3310   93.2670 C.ar   37  TYR37      -0.0009
     41  CE1       21.2650   28.0660   91.7380 C.ar   37  TYR37       0.0417
     42  CE2       22.7880   29.3670   93.0950 C.ar   37  TYR37       0.0417
     43  CZ        22.5190   28.2380   92.3260 C.ar   37  TYR37       0.1957
     44  OH        23.5120   27.3030   92.1220 O.3    37  TYR37      -0.2866
     45  N         17.5780   33.1400   94.8150 N.am   38  PHE38      -0.1962
     46  CA        16.7040   34.3110   94.8690 C.3    38  PHE38       0.1771
     47  C         17.2930   35.3560   95.8080 C.2    38  PHE38       0.2619
     48  O         18.1050   35.0310   96.6740 O.2    38  PHE38      -0.2715
     49  CB        15.2850   33.9120   95.3180 C.3    38  PHE38       0.0574
     50  CG        15.1970   33.4130   96.7380 C.ar   38  PHE38      -0.0200
     51  CD1       14.8650   34.2780   97.7760 C.ar   38  PHE38      -0.0042
     52  CD2       15.4030   32.0710   97.0330 C.ar   38  PHE38      -0.0042
     53  CE1       14.7320   33.8060   99.0920 C.ar   38  PHE38      -0.0003
     54  CE2       15.2730   31.5930   98.3390 C.ar   38  PHE38      -0.0003
     55  CZ        14.9360   32.4610   99.3700 C.ar   38  PHE38      -0.0000
     56  N         16.9080   36.6150   95.6240 N.am   39  ASP39      -0.1971
     57  CA        17.4220   37.6800   96.4700 C.3    39  ASP39       0.1709
     58  C         16.4620   37.9130   97.6300 C.2    39  ASP39       0.2293
     59  O         15.2500   37.7700   97.4880 O.2    39  ASP39      -0.2864
     60  CB        17.5930   38.9650   95.6670 C.3    39  ASP39       0.1436
     61  CG        18.3640   40.0340   96.4360 C.2    39  ASP39       0.3671
     62  OD1       19.5200   40.3320   96.0590 O.co2  39  ASP39      -0.2456
     63  OD2       17.8200   40.5770   97.4210 O.co2  39  ASP39      -0.2456
     64  N         13.3700   40.3150   97.4500 N.3    42  ASP42      -0.1239
     65  CA        12.2020   39.9270   96.6810 C.3    42  ASP42       0.1674
     66  C         11.1890   39.1210   97.5060 C.2    42  ASP42       0.2266
     67  O         10.1890   38.6270   96.9670 O.2    42  ASP42      -0.2867
     68  CB        12.6160   39.1540   95.4260 C.3    42  ASP42       0.1410
     69  CG        13.4610   39.9970   94.4680 C.2    42  ASP42       0.3668
     70  OD1       13.0920   41.1650   94.1950 O.co2  42  ASP42      -0.2456
     71  OD2       14.4960   39.4940   93.9780 O.co2  42  ASP42      -0.2456
     72  N         21.3570   29.4530  102.6450 N.3   120  LYS120     -0.1245
     73  CA        22.6250   30.1140  102.9380 C.3   120  LYS120      0.1561
     74  C         22.8030   31.3400  102.0470 C.2   120  LYS120      0.2260
     75  O         22.0530   31.5300  101.0900 O.2   120  LYS120     -0.2867
     76  CB        23.7860   29.1390  102.7110 C.3   120  LYS120      0.0271
     77  CG        23.9750   28.7340  101.2570 C.3   120  LYS120      0.0035
     78  CD        24.9900   27.6120  101.1110 C.3   120  LYS120      0.0206
     79  CE        25.1300   27.2050   99.6500 C.3   120  LYS120      0.1093
     80  NZ        25.9070   25.9480   99.4890 N.3   120  LYS120     -0.1314
     81  N         26.9010   34.3830   96.5460 N.3   123  VAL123     -0.1245
     82  CA        28.0750   35.1910   96.2190 C.3   123  VAL123      0.1561
     83  C         27.7190   36.5360   95.5790 C.2   123  VAL123      0.2260
     84  O         26.8960   36.5960   94.6690 O.2   123  VAL123     -0.2867
     85  CB        29.0120   34.4350   95.2450 C.3   123  VAL123      0.0252
     86  CG1       30.2650   35.2600   94.9840 C.3   123  VAL123      0.0019
     87  CG2       29.3850   33.0780   95.8250 C.3   123  VAL123      0.0019
     88  N         20.0900   44.4710   93.5710 N.3   156  ARG156     -0.1245
     89  CA        20.1050   43.1920   94.2550 C.3   156  ARG156      0.1563
     90  C         21.5100   42.7760   94.6760 C.2   156  ARG156      0.2260
     91  O         22.4090   42.6510   93.8460 O.2   156  ARG156     -0.2867
     92  CB        19.4890   42.1090   93.3640 C.3   156  ARG156      0.0307
     93  CG        17.9870   42.2190   93.1870 C.3   156  ARG156      0.0489
     94  CD        17.4600   41.0580   92.3520 C.3   156  ARG156      0.2205
     95  NE        16.0050   41.0850   92.2180 N.pl3 156  ARG156     -0.0865
     96  CZ        15.3210   42.0420   91.5900 C.cat 156  ARG156      0.5346
     97  NH1       15.9570   43.0630   91.0230 N.pl3 156  ARG156      0.1354
     98  NH2       13.9940   41.9870   91.5460 N.pl3 156  ARG156      0.1354
     99  N         20.7230   31.0990   98.7530 N.3   161  ILE161     -0.1245
    100  CA        20.7810   29.8290   98.0580 C.3   161  ILE161      0.1561
    101  C         19.9540   28.8190   98.8280 C.2   161  ILE161      0.2260
    102  O         20.1690   28.5930  100.0200 O.2   161  ILE161     -0.2867
    103  CB        22.2310   29.3300   97.9140 C.3   161  ILE161      0.0252
    104  CG1       23.0290   30.3200   97.0540 C.3   161  ILE161      0.0019
    105  CG2       22.2400   27.9480   97.2990 C.3   161  ILE161      0.0019
    106  CD1       24.5170   30.0040   96.9510 C.3   161  ILE161      0.0001
    107  N         18.5860   24.9140   99.0140 N.3   163  GLN163     -0.1245
    108  CA        18.8140   23.5520   98.5770 C.3   163  GLN163      0.1566
    109  C         17.8820   22.6460   99.3590 C.2   163  GLN163      0.2260
    110  O         17.4710   22.9850  100.4760 O.2   163  GLN163     -0.2867
    111  CB        20.2720   23.1530   98.8280 C.3   163  GLN163      0.0367
    112  CG        21.2690   23.8530   97.9110 C.3   163  GLN163      0.0905
    113  CD        22.7190   23.5400   98.2550 C.2   163  GLN163      0.2608
    114  OE1       23.2270   23.9530   99.2990 O.2   163  GLN163     -0.2717
    115  NE2       23.3880   22.8030   97.3780 N.am  163  GLN163     -0.0878
@<TRIPOS>BOND
     1    21    20    1
     2    21    22    2
     3    25    23    1
     4    20    19    1
     5    20    23    1
     6    17    16    2
     7    16    19   am
     8    16    15    1
     9    23    24    1
    10    18    15    1
    11    12    11    2
    12    15    14    1
    13    14     8   am
    14    11    13   am
    15    11    10    1
    16     8     7    1
    17     8     9    2
    18    97    96    1
    19     7    10    1
    20     7     6    1
    21    98    96    1
    22    96    95    2
    23    41    39   ar
    24    41    43   ar
    25    39    38   ar
    26    44    43    1
    27     4     3    2
    28    29    28    2
    29    95    94    1
    30    43    42   ar
    31    94    93    1
    32     6     3   am
    33    38    37    1
    34    38    40   ar
    35     3     2    1
    36    26    27    1
    37    37    34    1
    38    36    35    2
    39    42    40   ar
    40    93    92    1
    41    28    27    1
    42    92    89    1
    43    88    89    1
    44    30    27    1
    45    30    31    1
    46    30    32    1
    47    33    34    1
    48     1     2    1
    49    91    90    2
    50     2     5    1
    51    35    34    1
    52    35    45   am
    53    71    69   ar
    54    70    69   ar
    55    89    90    1
    56    69    68    1
    57    84    83    2
    58    45    46    1
    59    46    49    1
    60    46    47    1
    61    86    85    1
    62    85    87    1
    63    85    82    1
    64    49    50    1
    65    68    65    1
    66    83    82    1
    67    56    47   am
    68    56    57    1
    69    60    61    1
    70    60    57    1
    71    47    48    2
    72    62    61   ar
    73    82    81    1
    74    61    63   ar
    75    57    58    1
    76    65    64    1
    77    65    66    1
    78    50    52   ar
    79    50    51   ar
    80   106   104    1
    81    67    66    2
    82    52    54   ar
    83   104   103    1
    84   105   103    1
    85   115   113   am
    86    59    58    2
    87    51    53   ar
    88   112   113    1
    89   112   111    1
    90   103   100    1
    91   100    99    1
    92   100   101    1
    93   113   114    2
    94    54    55   ar
    95   108   111    1
    96   108   107    1
    97   108   109    1
    98   101   102    2
    99    53    55   ar
   100   109   110    2
   101    80    79    1
   102    79    78    1
   103    75    74    2
   104    78    77    1
   105    77    76    1
   106    74    73    1
   107    72    73    1
   108    76    73    1
