@<TRIPOS>MOLECULE
tmp/1lcsA01.pdb
 89 86 0 0 0
SMALL
GASTEIGER

@<TRIPOS>ATOM
      1  N        -32.1970   65.9690   90.3270 N.3    20  ALA20      -0.1231
      2  CA       -32.8200   64.7940   89.7320 C.3    20  ALA20       0.1694
      3  C        -34.0920   64.5080   90.5270 C.2    20  ALA20       0.2592
      4  O        -35.0900   64.0550   89.9730 O.2    20  ALA20      -0.2718
      5  CB       -31.8730   63.5990   89.7880 C.3    20  ALA20       0.0304
      6  N        -34.0380   64.7630   91.8310 N.am   21  ASN21      -0.1960
      7  CA       -35.1840   64.5830   92.7070 C.3    21  ASN21       0.1819
      8  C        -34.8230   64.9520   94.1300 C.2    21  ASN21       0.2621
      9  O        -33.6700   65.2310   94.4350 O.2    21  ASN21      -0.2715
     10  CB       -35.7020   63.1440   92.6880 C.3    21  ASN21       0.1195
     11  CG       -37.1880   63.0610   93.0440 C.2    21  ASN21       0.2630
     12  OD1      -37.6980   63.9040   93.7740 O.2    21  ASN21      -0.2716
     13  ND2      -37.8740   62.0420   92.5330 N.am   21  ASN21      -0.0877
     14  N        -35.8170   64.9500   95.0080 N.am   22  ALA22      -0.1963
     15  CA       -35.5850   65.2930   96.4040 C.3    22  ALA22       0.1728
     16  C        -36.6380   64.6620   97.2990 C.2    22  ALA22       0.2616
     17  O        -37.7350   64.3280   96.8540 O.2    22  ALA22      -0.2715
     18  CB       -35.5920   66.8100   96.5750 C.3    22  ALA22       0.0334
     19  N        -36.2910   64.4840   98.5620 N.am   23  THR23      -0.1951
     20  CA       -37.2140   63.9150   99.5250 C.3    23  THR23       0.1897
     21  C        -36.9990   64.5880  100.8740 C.2    23  THR23       0.2313
     22  O        -35.8610   64.7720  101.3220 O.2    23  THR23      -0.2863
     23  CB       -37.0120   62.3940   99.6700 C.3    23  THR23       0.1794
     24  OG1      -37.4630   61.7380   98.4800 O.3    23  THR23      -0.2208
     25  CG2      -37.8030   61.8560  100.8480 C.3    23  THR23       0.0378
     26  N        -35.5620   56.5420  101.5770 N.3    35  THR35      -0.1218
     27  CA       -35.2640   55.8540  100.3380 C.3    35  THR35       0.1862
     28  C        -35.4420   56.9100   99.2510 C.2    35  THR35       0.2287
     29  O        -36.4320   57.6290   99.2490 O.2    35  THR35      -0.2866
     30  CB       -36.2720   54.7110  100.1100 C.3    35  THR35       0.1770
     31  OG1      -35.9950   53.6540  101.0350 O.3    35  THR35      -0.2211
     32  CG2      -36.2080   54.1910   98.6770 C.3    35  THR35       0.0375
     33  N        -35.7230   58.1080   95.1420 N.3    37  TYR37      -0.1227
     34  CA       -36.2000   57.6130   93.8610 C.3    37  TYR37       0.1736
     35  C        -35.8490   58.6420   92.7940 C.2    37  TYR37       0.2595
     36  O        -36.0610   59.8380   92.9970 O.2    37  TYR37      -0.2718
     37  CB       -37.7190   57.4250   93.8770 C.3    37  TYR37       0.0548
     38  CG       -38.2260   56.4120   94.8730 C.ar   37  TYR37      -0.0200
     39  CD1      -38.4340   56.7560   96.2080 C.ar   37  TYR37      -0.0009
     40  CD2      -38.4840   55.0950   94.4800 C.ar   37  TYR37      -0.0009
     41  CE1      -38.8850   55.8160   97.1270 C.ar   37  TYR37       0.0417
     42  CE2      -38.9330   54.1480   95.3890 C.ar   37  TYR37       0.0417
     43  CZ       -39.1290   54.5140   96.7100 C.ar   37  TYR37       0.1957
     44  OH       -39.5450   53.5660   97.6140 O.3    37  TYR37      -0.2866
     45  N        -35.3080   58.1880   91.6680 N.am   38  PHE38      -0.1962
     46  CA       -34.9770   59.0950   90.5800 C.3    38  PHE38       0.1771
     47  C        -34.8060   58.3200   89.2830 C.2    38  PHE38       0.2619
     48  O        -34.6900   57.0960   89.3010 O.2    38  PHE38      -0.2715
     49  CB       -33.7220   59.9120   90.9220 C.3    38  PHE38       0.0574
     50  CG       -32.4590   59.1000   91.0360 C.ar   38  PHE38      -0.0200
     51  CD1      -31.5470   59.0590   89.9850 C.ar   38  PHE38      -0.0042
     52  CD2      -32.1620   58.4080   92.2090 C.ar   38  PHE38      -0.0042
     53  CE1      -30.3510   58.3430   90.1000 C.ar   38  PHE38      -0.0003
     54  CE2      -30.9700   57.6870   92.3390 C.ar   38  PHE38      -0.0003
     55  CZ       -30.0610   57.6530   91.2850 C.ar   38  PHE38      -0.0000
     56  N        -34.8400   59.0150   88.1500 N.am   39  ASP39      -0.1971
     57  CA       -34.6770   58.3370   86.8710 C.3    39  ASP39       0.1709
     58  C        -33.2570   58.5940   86.3840 C.2    39  ASP39       0.2293
     59  O        -32.7220   59.6900   86.5700 O.2    39  ASP39      -0.2864
     60  CB       -35.6820   58.8550   85.8330 C.3    39  ASP39       0.1436
     61  CG       -35.7630   57.9570   84.6020 C.2    39  ASP39       0.3671
     62  OD1      -36.6450   57.0630   84.5690 O.co2  39  ASP39      -0.2456
     63  OD2      -34.9350   58.1230   83.6760 O.co2  39  ASP39      -0.2456
     64  N        -32.3150   61.6160   84.3360 N.3    42  ASP42      -0.1239
     65  CA       -32.2570   62.9240   84.9780 C.3    42  ASP42       0.1674
     66  C        -30.8960   63.2350   85.5860 C.2    42  ASP42       0.2266
     67  O        -30.7260   64.2740   86.2250 O.2    42  ASP42      -0.2867
     68  CB       -33.3490   63.0520   86.0480 C.3    42  ASP42       0.1410
     69  CG       -34.7460   63.1080   85.4450 C.2    42  ASP42       0.3668
     70  OD1      -34.9210   63.8000   84.4200 O.co2  42  ASP42      -0.2456
     71  OD2      -35.6700   62.4700   85.9900 O.co2  42  ASP42      -0.2456
     72  N        -39.9320   58.9300   81.0050 N.3   156  ARG156     -0.1245
     73  CA       -39.1950   58.2980   82.0890 C.3   156  ARG156      0.1563
     74  C        -39.5650   56.8270   82.3020 C.2   156  ARG156      0.2260
     75  O        -40.7110   56.4920   82.6100 O.2   156  ARG156     -0.2867
     76  CB       -39.3910   59.0960   83.3870 C.3   156  ARG156      0.0307
     77  CG       -38.7890   60.4990   83.3190 C.3   156  ARG156      0.0489
     78  CD       -38.8250   61.2350   84.6630 C.3   156  ARG156      0.2205
     79  NE       -38.0650   62.4880   84.6170 N.pl3 156  ARG156     -0.0865
     80  CZ       -38.4070   63.5600   83.9010 C.cat 156  ARG156      0.5346
     81  NH1      -39.5070   63.5510   83.1620 N.pl3 156  ARG156      0.1354
     82  NH2      -37.6450   64.6500   83.9190 N.pl3 156  ARG156      0.1354
     83  N        -36.2630   54.0260   86.2130 N.3   159  PRO159     -0.2116
     84  CA       -36.2490   54.3230   87.6450 C.3   159  PRO159      0.1372
     85  C        -35.1410   53.6220   88.4330 C.2   159  PRO159      0.2244
     86  O        -34.8880   52.4240   88.2730 O.2   159  PRO159     -0.2868
     87  CB       -37.6370   53.8800   88.0930 C.3   159  PRO159      0.0268
     88  CG       -37.8610   52.6560   87.2270 C.3   159  PRO159      0.0207
     89  CD       -37.3890   53.1350   85.8690 C.3   159  PRO159      0.0892
@<TRIPOS>BOND
     1    72    73    1
     2    73    74    1
     3    73    76    1
     4    74    75    2
     5    81    80    1
     6    77    76    1
     7    77    78    1
     8    63    61   ar
     9    80    82    1
    10    80    79    2
    11    64    65    1
    12    70    69   ar
    13    62    61   ar
    14    61    60    1
    15    79    78    1
    16    65    66    1
    17    65    68    1
    18    69    71   ar
    19    69    68    1
    20    66    67    2
    21    60    57    1
    22    89    83    1
    23    89    88    1
    24    83    84    1
    25    58    59    2
    26    58    57    1
    27    57    56    1
    28    88    87    1
    29    84    87    1
    30    84    85    1
    31    56    47   am
    32    86    85    2
    33    47    48    2
    34    47    46    1
    35     2     5    1
    36     2     1    1
    37     2     3    1
    38     4     3    2
    39    51    53   ar
    40    51    50   ar
    41    53    55   ar
    42     3     6   am
    43    46    49    1
    44    46    45    1
    45    49    50    1
    46    50    52   ar
    47    55    54   ar
    48    45    35   am
    49     6     7    1
    50    52    54   ar
    51    13    11   am
    52    10     7    1
    53    10    11    1
    54     7     8    1
    55    35    36    2
    56    35    34    1
    57    11    12    2
    58    34    37    1
    59    34    33    1
    60    37    38    1
    61     8     9    2
    62     8    14   am
    63    40    38   ar
    64    40    42   ar
    65    38    39   ar
    66    14    15    1
    67    42    43   ar
    68    39    41   ar
    69    15    18    1
    70    15    16    1
    71    43    41   ar
    72    43    44    1
    73    17    16    2
    74    16    19   am
    75    24    23    1
    76    19    20    1
    77    32    30    1
    78    29    28    2
    79    28    27    1
    80    20    23    1
    81    20    21    1
    82    23    25    1
    83    30    27    1
    84    30    31    1
    85    27    26    1
    86    21    22    2
