@<TRIPOS>MOLECULE
tmp/1lcvA00.pdb
 140 133 0 0 0
SMALL
GASTEIGER

@<TRIPOS>ATOM
      1  N         -0.3860   42.5330   12.0120 N.3     9  ASN9       -0.1240
      2  CA        -0.5740   42.2160   10.6010 C.3     9  ASN9        0.1653
      3  C         -1.7510   43.0120   10.0500 C.2     9  ASN9        0.2266
      4  O         -2.4150   43.7470   10.7890 O.2     9  ASN9       -0.2867
      5  CB        -0.7700   40.7050   10.3620 C.3     9  ASN9        0.1155
      6  CG        -2.0620   40.1640   10.9430 C.2     9  ASN9        0.2627
      7  OD1       -3.0040   40.9060   11.2280 O.2     9  ASN9       -0.2716
      8  ND2       -2.1200   38.8480   11.0940 N.am    9  ASN9       -0.0877
      9  N         -4.6430   42.2700    9.4050 N.3    11  LEU11      -0.1245
     10  CA        -5.9490   41.9270    9.9530 C.3    11  LEU11       0.1561
     11  C         -6.1860   42.6310   11.2820 C.2    11  LEU11       0.2260
     12  O         -7.3190   42.7380   11.7470 O.2    11  LEU11      -0.2867
     13  CB        -6.0590   40.4100   10.1480 C.3    11  LEU11       0.0270
     14  CG        -6.1110   39.5650    8.8690 C.3    11  LEU11       0.0019
     15  CD1       -5.9640   38.0800    9.1980 C.3    11  LEU11       0.0001
     16  CD2       -7.4320   39.8430    8.1510 C.3    11  LEU11       0.0001
     17  N         -4.2700   41.7240   13.9640 N.3    13  SER13      -0.1217
     18  CA        -3.8690   40.7330   14.9530 C.3    13  SER13       0.1889
     19  C         -2.5620   41.1660   15.6200 C.2    13  SER13       0.2288
     20  O         -1.7630   41.8930   15.0270 O.2    13  SER13      -0.2866
     21  CB        -3.7020   39.3680   14.2830 C.3    13  SER13       0.2089
     22  OG        -4.8890   38.9990   13.5940 O.3    13  SER13      -0.2183
     23  N          0.1180   35.3230   20.8200 N.3    29  TYR29      -0.1241
     24  CA        -0.5260   35.8370   19.6260 C.3    29  TYR29       0.1605
     25  C         -1.9970   36.1220   19.9140 C.2    29  TYR29       0.2264
     26  O         -2.6430   35.3890   20.6630 O.2    29  TYR29      -0.2867
     27  CB        -0.3940   34.7970   18.5160 C.3    29  TYR29       0.0534
     28  CG        -0.6950   35.2980   17.1250 C.ar   29  TYR29      -0.0201
     29  CD1       -2.0110   35.4540   16.6830 C.ar   29  TYR29      -0.0009
     30  CD2        0.3420   35.6170   16.2450 C.ar   29  TYR29      -0.0009
     31  CE1       -2.2840   35.9120   15.3980 C.ar   29  TYR29       0.0417
     32  CE2        0.0790   36.0760   14.9610 C.ar   29  TYR29       0.0417
     33  CZ        -1.2330   36.2190   14.5450 C.ar   29  TYR29       0.1957
     34  OH        -1.4930   36.6540   13.2690 O.3    29  TYR29      -0.2866
     35  N         -5.4960   36.8780   17.7820 N.3    31  SER31      -0.1217
     36  CA        -6.1280   36.9800   16.4680 C.3    31  SER31       0.1889
     37  C         -7.2840   37.9680   16.4610 C.2    31  SER31       0.2288
     38  O         -8.0680   38.0440   17.4090 O.2    31  SER31      -0.2866
     39  CB        -6.6270   35.6090   15.9990 C.3    31  SER31       0.2089
     40  OG        -7.0920   35.6630   14.6570 O.3    31  SER31      -0.2183
     41  N         -9.4600   37.8600   14.0370 N.3    33  VAL33      -0.1231
     42  CA       -10.5630   37.1590   13.3970 C.3    33  VAL33       0.1692
     43  C        -10.6410   35.6880   13.8030 C.2    33  VAL33       0.2593
     44  O         -9.7510   35.1750   14.4770 O.2    33  VAL33      -0.2718
     45  CB       -10.4380   37.2490   11.8520 C.3    33  VAL33       0.0266
     46  CG1      -10.4380   38.7150   11.4120 C.3    33  VAL33       0.0020
     47  CG2       -9.1590   36.5500   11.3780 C.3    33  VAL33       0.0020
     48  N        -11.7220   35.0230   13.3990 N.am   34  GLY34      -0.1942
     49  CA       -11.8950   33.6120   13.6970 C.3    34  GLY34       0.2014
     50  C        -12.4580   33.2740   15.0650 C.2    34  GLY34       0.2639
     51  O        -12.8080   34.1560   15.8520 O.2    34  GLY34      -0.2714
     52  N        -12.5530   31.9770   15.3400 N.am   35  ASN35      -0.1958
     53  CA       -13.0620   31.4840   16.6140 C.3    35  ASN35       0.1819
     54  C        -11.9270   31.5520   17.6270 C.2    35  ASN35       0.2621
     55  O        -11.2900   30.5430   17.9360 O.2    35  ASN35      -0.2715
     56  CB       -13.5570   30.0420   16.4520 C.3    35  ASN35       0.1195
     57  CG       -14.0210   29.4290   17.7630 C.2    35  ASN35       0.2630
     58  OD1      -14.6300   30.1000   18.6010 O.2    35  ASN35      -0.2716
     59  ND2      -13.7480   28.1420   17.9400 N.am   35  ASN35      -0.0877
     60  N        -11.6770   32.7510   18.1410 N.am   36  ALA36      -0.1977
     61  CA       -10.5940   32.9460   19.0860 C.3    36  ALA36       0.1597
     62  C        -10.8030   34.1690   19.9630 C.2    36  ALA36       0.2287
     63  O        -11.4800   35.1130   19.5680 O.2    36  ALA36      -0.2864
     64  CB        -9.2890   33.0820   18.3260 C.3    36  ALA36       0.0319
     65  N         -4.8940   26.8090   18.6750 N.3    65  TRP65      -0.1241
     66  CA        -5.9660   27.6770   19.1350 C.3    65  TRP65       0.1605
     67  C         -6.7260   27.1710   20.3400 C.2    65  TRP65       0.2264
     68  O         -7.9140   26.8650   20.2700 O.2    65  TRP65      -0.2867
     69  CB        -6.9190   27.9760   17.9820 C.3    65  TRP65       0.0550
     70  CG        -6.2000   28.6270   16.8690 C.ar   65  TRP65       0.0003
     71  CD1       -5.8020   28.0500   15.6980 C.ar   65  TRP65       0.0946
     72  CD2       -5.6810   29.9610   16.8580 C.ar   65  TRP65       0.0152
     73  NE1       -5.0610   28.9410   14.9590 N.ar   65  TRP65      -0.2442
     74  CE2       -4.9680   30.1220   15.6470 C.ar   65  TRP65       0.0810
     75  CE3       -5.7460   31.0350   17.7580 C.ar   65  TRP65       0.0012
     76  CZ2       -4.3200   31.3140   15.3090 C.ar   65  TRP65       0.0191
     77  CZ3       -5.1010   32.2240   17.4220 C.ar   65  TRP65       0.0001
     78  CH2       -4.3950   32.3510   16.2040 C.ar   65  TRP65       0.0015
     79  N        -10.4720   25.9090   19.6020 N.3    72  ALA72      -0.1245
     80  CA       -11.0430   25.8000   18.2690 C.3    72  ALA72       0.1562
     81  C        -10.6460   24.4780   17.6210 C.2    72  ALA72       0.2260
     82  O        -11.0770   24.1760   16.5190 O.2    72  ALA72      -0.2867
     83  CB       -10.5940   26.9660   17.4060 C.3    72  ALA72       0.0290
     84  N         -7.7630   23.5380   16.4210 N.3    74  SER74      -0.1217
     85  CA        -7.0450   23.8290   15.1940 C.3    74  SER74       0.1889
     86  C         -5.6650   24.3770   15.5260 C.2    74  SER74       0.2288
     87  O         -5.3840   24.7300   16.6670 O.2    74  SER74      -0.2866
     88  CB        -7.8250   24.8550   14.3800 C.3    74  SER74       0.2089
     89  OG        -8.0220   26.0350   15.1400 O.3    74  SER74      -0.2183
     90  N         -2.2990   26.7670   13.6160 N.3    76  THR76      -0.1218
     91  CA        -1.7610   27.4990   12.4790 C.3    76  THR76       0.1862
     92  C         -0.2430   27.5360   12.6090 C.2    76  THR76       0.2287
     93  O          0.2980   27.6080   13.7120 O.2    76  THR76      -0.2866
     94  CB        -2.2940   28.9560   12.4260 C.3    76  THR76       0.1770
     95  OG1       -3.7220   28.9440   12.3230 O.3    76  THR76      -0.2211
     96  CG2       -1.7190   29.7020   11.2190 C.3    76  THR76       0.0375
     97  N          3.0960   29.5350   10.8380 N.3    78  TRP78      -0.1241
     98  CA         3.5290   30.6020    9.9410 C.3    78  TRP78       0.1605
     99  C          4.9580   30.3260    9.5280 C.2    78  TRP78       0.2264
    100  O          5.8190   30.0750   10.3720 O.2    78  TRP78      -0.2867
    101  CB         3.4970   31.9690   10.6250 C.3    78  TRP78       0.0550
    102  CG         2.1500   32.5750   10.8030 C.ar   78  TRP78       0.0003
    103  CD1        1.5640   33.5260   10.0100 C.ar   78  TRP78       0.0946
    104  CD2        1.2600   32.3660   11.9060 C.ar   78  TRP78       0.0152
    105  NE1        0.3670   33.9350   10.5650 N.ar   78  TRP78      -0.2442
    106  CE2        0.1580   33.2390   11.7290 C.ar   78  TRP78       0.0810
    107  CE3        1.2890   31.5310   13.0310 C.ar   78  TRP78       0.0012
    108  CZ2       -0.9000   33.3020   12.6370 C.ar   78  TRP78       0.0191
    109  CZ3        0.2310   31.5960   13.9390 C.ar   78  TRP78       0.0001
    110  CH2       -0.8470   32.4780   13.7330 C.ar   78  TRP78       0.0015
    111  N          0.9140   31.0270    5.7370 N.3    94  TRP94      -0.1241
    112  CA         0.5090   30.0960    6.7760 C.3    94  TRP94       0.1605
    113  C         -0.4060   28.9560    6.3680 C.2    94  TRP94       0.2264
    114  O         -0.9710   28.9310    5.2780 O.2    94  TRP94      -0.2867
    115  CB        -0.1390   30.8690    7.9340 C.3    94  TRP94       0.0550
    116  CG        -1.2100   31.8380    7.4980 C.ar   94  TRP94       0.0003
    117  CD1       -1.0710   33.1810    7.3180 C.ar   94  TRP94       0.0946
    118  CD2       -2.5910   31.5410    7.2340 C.ar   94  TRP94       0.0152
    119  NE1       -2.2770   33.7450    6.9690 N.ar   94  TRP94      -0.2442
    120  CE2       -3.2260   32.7600    6.9080 C.ar   94  TRP94       0.0810
    121  CE3       -3.3530   30.3620    7.2450 C.ar   94  TRP94       0.0012
    122  CZ2       -4.5920   32.8370    6.5970 C.ar   94  TRP94       0.0191
    123  CZ3       -4.7130   30.4400    6.9370 C.ar   94  TRP94       0.0001
    124  CH2       -5.3140   31.6690    6.6190 C.ar   94  TRP94       0.0015
    125  N         -3.4530   26.6780    8.3470 N.3    96  LEU96      -0.1245
    126  CA        -4.3170   26.5160    9.5120 C.3    96  LEU96       0.1561
    127  C         -5.0750   25.2070    9.3610 C.2    96  LEU96       0.2260
    128  O         -5.9670   25.1090    8.5260 O.2    96  LEU96      -0.2867
    129  CB        -5.3040   27.6870    9.5960 C.3    96  LEU96       0.0270
    130  CG        -6.6110   27.5080   10.3910 C.3    96  LEU96       0.0019
    131  CD1       -6.3200   27.0620   11.8150 C.3    96  LEU96       0.0001
    132  CD2       -7.3800   28.8160   10.3880 C.3    96  LEU96       0.0001
    133  N          0.1870   36.4780    5.7250 N.3   114  ASP114     -0.1239
    134  CA         0.1100   37.6750    6.5620 C.3   114  ASP114      0.1674
    135  C          1.4060   38.4650    6.4580 C.2   114  ASP114      0.2266
    136  O          2.4860   37.8910    6.2930 O.2   114  ASP114     -0.2867
    137  CB        -0.0630   37.3250    8.0460 C.3   114  ASP114      0.1410
    138  CG        -1.3740   36.6380    8.3550 C.2   114  ASP114      0.3668
    139  OD1       -2.2860   36.6300    7.5040 O.co2 114  ASP114     -0.2456
    140  OD2       -1.4920   36.1080    9.4760 O.co2 114  ASP114     -0.2456
@<TRIPOS>BOND
     1   114   113    2
     2   133   134    1
     3   111   112    1
     4   136   135    2
     5   113   112    1
     6   135   134    1
     7   134   137    1
     8   122   124   ar
     9   122   120   ar
    10   124   123   ar
    11   112   115    1
    12   120   119   ar
    13   120   118   ar
    14   123   121   ar
    15   119   117   ar
    16   118   121   ar
    17   118   116   ar
    18   117   116   ar
    19   116   115    1
    20   139   138   ar
    21   137   138    1
    22    16    14    1
    23   125   126    1
    24   138   140   ar
    25   128   127    2
    26    14    15    1
    27    14    13    1
    28   127   126    1
    29     9    10    1
    30   126   129    1
    31    99    98    1
    32    99   100    2
    33   129   130    1
    34    98   101    1
    35    98    97    1
    36    10    13    1
    37    10    11    1
    38   103   105   ar
    39   103   102   ar
    40     3     2    1
    41     3     4    2
    42     5     2    1
    43     5     6    1
    44   132   130    1
    45   130   131    1
    46   105   106   ar
    47     2     1    1
    48   101   102    1
    49   102   104   ar
    50     6     8   am
    51     6     7    2
    52    96    94    1
    53    11    12    2
    54    47    45    1
    55    46    45    1
    56   106   104   ar
    57   106   108   ar
    58    45    42    1
    59   104   107   ar
    60    95    94    1
    61    94    91    1
    62    91    92    1
    63    91    90    1
    64    92    93    2
    65   108   110   ar
    66   107   109   ar
    67    34    33    1
    68    42    43    1
    69    42    41    1
    70    48    49    1
    71    48    43   am
    72    22    21    1
    73    49    50    1
    74   110   109   ar
    75    43    44    2
    76    17    18    1
    77    21    18    1
    78    88    89    1
    79    88    85    1
    80    33    32   ar
    81    33    31   ar
    82    40    39    1
    83    18    19    1
    84    73    74   ar
    85    73    71   ar
    86    32    30   ar
    87    20    19    2
    88    50    52   am
    89    50    51    2
    90    85    86    1
    91    85    84    1
    92    76    74   ar
    93    76    78   ar
    94    52    53    1
    95    31    29   ar
    96    86    87    2
    97    74    72   ar
    98    71    70   ar
    99    39    36    1
   100    78    77   ar
   101    30    28   ar
   102    56    53    1
   103    56    57    1
   104    37    36    1
   105    37    38    2
   106    36    35    1
   107    82    81    2
   108    53    54    1
   109    29    28   ar
   110    72    70   ar
   111    72    75   ar
   112    70    69    1
   113    28    27    1
   114    83    80    1
   115    77    75   ar
   116    81    80    1
   117    54    55    2
   118    54    60   am
   119    57    59   am
   120    57    58    2
   121    69    66    1
   122    60    61    1
   123    80    79    1
   124    64    61    1
   125    27    24    1
   126    65    66    1
   127    61    62    1
   128    66    67    1
   129    63    62    2
   130    24    25    1
   131    24    23    1
   132    25    26    2
   133    68    67    2
