@<TRIPOS>MOLECULE
tmp/1lcwB00.pdb
 154 145 0 0 0
SMALL
GASTEIGER

@<TRIPOS>ATOM
      1  N          8.6010    9.5570    8.1740 N.3     8  ASN8       -0.1240
      2  CA         7.7250    9.9410    7.0630 C.3     8  ASN8        0.1653
      3  C          8.0840    9.1790    5.7820 C.2     8  ASN8        0.2266
      4  O          9.0320    8.3870    5.7640 O.2     8  ASN8       -0.2867
      5  CB         7.7420   11.4600    6.8230 C.3     8  ASN8        0.1155
      6  CG         9.0600   11.9700    6.2620 C.2     8  ASN8        0.2627
      7  OD1        9.9660   11.2020    5.9490 O.2     8  ASN8       -0.2716
      8  ND2        9.1620   13.2900    6.1270 N.am    8  ASN8       -0.0877
      9  N          9.7270    9.8670    3.3710 N.3    10  LEU10      -0.1245
     10  CA        11.0760   10.1230    2.8720 C.3    10  LEU10       0.1561
     11  C         12.1550    9.4600    3.7310 C.2    10  LEU10       0.2260
     12  O         13.3230    9.4210    3.3490 O.2    10  LEU10      -0.2867
     13  CB        11.3380   11.6340    2.8140 C.3    10  LEU10       0.0270
     14  CG        10.4620   12.4730    1.8780 C.3    10  LEU10       0.0019
     15  CD1       10.7010   13.9540    2.1260 C.3    10  LEU10       0.0001
     16  CD2       10.7760   12.1110    0.4360 C.3    10  LEU10       0.0001
     17  N         12.7020   10.4650    6.8860 N.3    12  SER12      -0.1217
     18  CA        13.0680   11.4240    7.9200 C.3    12  SER12       0.1889
     19  C         12.6000   10.9180    9.2770 C.2    12  SER12       0.2288
     20  O         11.6020   10.2030    9.3660 O.2    12  SER12      -0.2866
     21  CB        12.4390   12.7810    7.6190 C.3    12  SER12       0.2089
     22  OG        13.0040   13.3270    6.4450 O.3    12  SER12      -0.2183
     23  N         14.4600   16.7620   14.8980 N.3    28  TYR28      -0.1241
     24  CA        14.0930   16.3030   13.5720 C.3    28  TYR28       0.1605
     25  C         15.3490   15.9800   12.7720 C.2    28  TYR28       0.2264
     26  O         16.3500   16.6820   12.8740 O.2    28  TYR28      -0.2867
     27  CB        13.2830   17.4000   12.8660 C.3    28  TYR28       0.0534
     28  CG        12.4830   16.9160   11.6770 C.ar   28  TYR28      -0.0201
     29  CD1       13.0750   16.7630   10.4240 C.ar   28  TYR28      -0.0009
     30  CD2       11.1410   16.5730   11.8200 C.ar   28  TYR28      -0.0009
     31  CE1       12.3460   16.2770    9.3430 C.ar   28  TYR28       0.0417
     32  CE2       10.4040   16.0860   10.7530 C.ar   28  TYR28       0.0417
     33  CZ        11.0090   15.9400    9.5170 C.ar   28  TYR28       0.1957
     34  OH        10.2740   15.4660    8.4600 O.3    28  TYR28      -0.2866
     35  N         16.3350   15.1130    8.8190 N.3    30  SER30      -0.1217
     36  CA        15.8730   14.9680    7.4500 C.3    30  SER30       0.1889
     37  C         16.7460   14.0200    6.6430 C.2    30  SER30       0.2288
     38  O         17.9710   14.0260    6.7670 O.2    30  SER30      -0.2866
     39  CB        15.8300   16.3290    6.7560 C.3    30  SER30       0.2089
     40  OG        15.2970   16.1950    5.4500 O.3    30  SER30      -0.2183
     41  N         16.6560   14.0970    3.3680 N.3    32  VAL32      -0.1231
     42  CA        16.9360   14.8080    2.1210 C.3    32  VAL32       0.1692
     43  C         17.3070   16.2730    2.3510 C.2    32  VAL32       0.2593
     44  O         17.0740   16.8300    3.4250 O.2    32  VAL32      -0.2718
     45  CB        15.7190   14.7820    1.1630 C.3    32  VAL32       0.0266
     46  CG1       15.3480   13.3510    0.8250 C.3    32  VAL32       0.0020
     47  CG2       14.5410   15.5130    1.7970 C.3    32  VAL32       0.0020
     48  N         17.9040   16.8820    1.3320 N.am   33  GLY33      -0.1942
     49  CA        18.2790   18.2790    1.4090 C.3    33  GLY33       0.2014
     50  C         19.5860   18.6010    2.0990 C.2    33  GLY33       0.2639
     51  O         20.3330   17.7140    2.5190 O.2    33  GLY33      -0.2714
     52  N         19.8490   19.8990    2.2150 N.am   34  ASN34      -0.1958
     53  CA        21.0560   20.4130    2.8470 C.3    34  ASN34       0.1819
     54  C         20.8910   20.3450    4.3600 C.2    34  ASN34       0.2621
     55  O         20.8350   21.3670    5.0460 O.2    34  ASN34      -0.2715
     56  CB        21.2920   21.8560    2.3860 C.3    34  ASN34       0.1195
     57  CG        22.5440   22.4630    2.9730 C.2    34  ASN34       0.2630
     58  OD1       23.5180   21.7630    3.2570 O.2    34  ASN34      -0.2716
     59  ND2       22.5350   23.7830    3.1410 N.am   34  ASN34      -0.0877
     60  N         20.8060   19.1210    4.8690 N.am   35  ALA35      -0.1977
     61  CA        20.6300   18.8960    6.2920 C.3    35  ALA35       0.1597
     62  C         21.4990   17.7330    6.7310 C.2    35  ALA35       0.2287
     63  O         21.7300   16.7960    5.9690 O.2    35  ALA35      -0.2864
     64  CB        19.1540   18.6030    6.6020 C.3    35  ALA35       0.0319
     65  N         16.5640   25.2740   10.0770 N.3    64  TRP64      -0.1241
     66  CA        17.6350   24.3700    9.6530 C.3    64  TRP64       0.1605
     67  C         19.0720   24.8010    9.9290 C.2    64  TRP64       0.2264
     68  O         19.8840   24.9700    9.0180 O.2    64  TRP64      -0.2867
     69  CB        17.4610   24.0160    8.1670 C.3    64  TRP64       0.0550
     70  CG        16.1550   23.3180    7.8990 C.ar   64  TRP64       0.0003
     71  CD1       15.0240   23.8610    7.3500 C.ar   64  TRP64       0.0946
     72  CD2       15.8170   21.9720    8.2620 C.ar   64  TRP64       0.0152
     73  NE1       14.0030   22.9360    7.3550 N.ar   64  TRP64      -0.2442
     74  CE2       14.4640   21.7700    7.9110 C.ar   64  TRP64       0.0810
     75  CE3       16.5280   20.9170    8.8540 C.ar   64  TRP64       0.0012
     76  CZ2       13.8070   20.5550    8.1340 C.ar   64  TRP64       0.0191
     77  CZ3       15.8680   19.7030    9.0760 C.ar   64  TRP64       0.0001
     78  CH2       14.5240   19.5370    8.7160 C.ar   64  TRP64       0.0015
     79  N         21.2600   26.0270    6.6250 N.3    71  ALA71      -0.1245
     80  CA        20.7160   26.1650    5.2780 C.3    71  ALA71       0.1562
     81  C         19.9380   27.4690    5.1060 C.2    71  ALA71       0.2260
     82  O         19.3540   27.7180    4.0490 O.2    71  ALA71      -0.2867
     83  CB        19.8230   24.9650    4.9560 C.3    71  ALA71       0.0290
     84  N         17.0560   28.6080    6.3940 N.3    73  SER73      -0.1217
     85  CA        15.6710   28.3680    6.0460 C.3    73  SER73       0.1889
     86  C         14.9460   27.7410    7.2180 C.2    73  SER73       0.2288
     87  O         15.5630   27.3510    8.2120 O.2    73  SER73      -0.2866
     88  CB        15.5890   27.4620    4.8160 C.3    73  SER73       0.2089
     89  OG        16.3240   26.2760    5.0220 O.3    73  SER73      -0.2183
     90  N         11.1700   25.3180    8.1640 N.3    75  THR75      -0.1218
     91  CA        10.0020   24.5790    7.7250 C.3    75  THR75       0.1862
     92  C          8.9910   24.5300    8.8670 C.2    75  THR75       0.2287
     93  O          9.3690   24.3940   10.0230 O.2    75  THR75      -0.2866
     94  CB        10.3600   23.1160    7.3590 C.3    75  THR75       0.1770
     95  OG1       11.3640   23.0950    6.3360 O.3    75  THR75      -0.2211
     96  CG2        9.1310   22.3840    6.8610 C.3    75  THR75       0.0375
     97  N          5.3310   22.5580    9.8560 N.3    77  TRP77      -0.1241
     98  CA         4.4260   21.4780    9.4700 C.3    77  TRP77       0.1605
     99  C          3.1130   21.7430   10.1900 C.2    77  TRP77       0.2264
    100  O          3.1110   22.0220   11.3860 O.2    77  TRP77      -0.2867
    101  CB         4.9530   20.1250    9.9400 C.3    77  TRP77       0.0550
    102  CG         6.0650   19.5290    9.1600 C.ar   77  TRP77       0.0003
    103  CD1        5.9650   18.5370    8.2200 C.ar   77  TRP77       0.0946
    104  CD2        7.4660   19.7730    9.3370 C.ar   77  TRP77       0.0152
    105  NE1        7.2160   18.1400    7.8170 N.ar   77  TRP77      -0.2442
    106  CE2        8.1560   18.8820    8.4830 C.ar   77  TRP77       0.0810
    107  CE3        8.2090   20.6550   10.1390 C.ar   77  TRP77       0.0012
    108  CZ2        9.5570   18.8440    8.4090 C.ar   77  TRP77       0.0191
    109  CZ3        9.6030   20.6170   10.0650 C.ar   77  TRP77       0.0001
    110  CH2       10.2600   19.7170    9.2060 C.ar   77  TRP77       0.0015
    111  N          3.4590   21.1400    4.6740 N.3    93  TRP93      -0.1241
    112  CA         4.4920   22.0380    5.1550 C.3    93  TRP93       0.1605
    113  C          4.8890   23.1840    4.2330 C.2    93  TRP93       0.2264
    114  O          4.6480   23.1520    3.0260 O.2    93  TRP93      -0.2867
    115  CB         5.7440   21.2280    5.5180 C.3    93  TRP93       0.0550
    116  CG         6.2230   20.2810    4.4390 C.ar   93  TRP93       0.0003
    117  CD1        6.0080   18.9290    4.3800 C.ar   93  TRP93       0.0946
    118  CD2        6.9920   20.6130    3.2740 C.ar   93  TRP93       0.0152
    119  NE1        6.5970   18.3990    3.2540 N.ar   93  TRP93      -0.2442
    120  CE2        7.2060   19.4070    2.5560 C.ar   93  TRP93       0.0810
    121  CE3        7.5220   21.8070    2.7650 C.ar   93  TRP93       0.0012
    122  CZ2        7.9300   19.3650    1.3540 C.ar   93  TRP93       0.0191
    123  CZ3        8.2420   21.7640    1.5720 C.ar   93  TRP93       0.0001
    124  CH2        8.4380   20.5490    0.8800 C.ar   93  TRP93       0.0015
    125  N          8.3020   25.5280    3.4640 N.3    95  LEU95      -0.1245
    126  CA         9.7370   25.6670    3.6560 C.3    95  LEU95       0.1561
    127  C         10.1420   27.0380    3.1050 C.2    95  LEU95       0.2260
    128  O         10.1520   27.2320    1.8960 O.2    95  LEU95      -0.2867
    129  CB        10.4720   24.5600    2.8850 C.3    95  LEU95       0.0270
    130  CG        11.9190   24.2340    3.2890 C.3    95  LEU95       0.0019
    131  CD1       12.5210   23.2520    2.2840 C.3    95  LEU95       0.0001
    132  CD2       12.7530   25.4980    3.3520 C.3    95  LEU95       0.0001
    133  N         12.9990   29.9580    2.5990 N.3    97  SER97      -0.1217
    134  CA        14.4350   30.2150    2.6020 C.3    97  SER97       0.1889
    135  C         14.6440   31.7220    2.7250 C.2    97  SER97       0.2288
    136  O         13.8110   32.5030    2.2750 O.2    97  SER97      -0.2866
    137  CB        15.0870   29.7340    1.2950 C.3    97  SER97       0.2089
    138  OG        15.0000   28.3290    1.1450 O.3    97  SER97      -0.2183
    139  N          8.6090   26.8440   -0.5100 N.3   109  LEU109     -0.1245
    140  CA         8.2240   25.5650   -1.0910 C.3   109  LEU109      0.1561
    141  C          7.0580   25.0280   -0.2610 C.2   109  LEU109      0.2260
    142  O          6.9200   25.3490    0.9210 O.2   109  LEU109     -0.2867
    143  CB         9.3950   24.5760   -1.0500 C.3   109  LEU109      0.0270
    144  CG        10.5910   24.8480   -1.9710 C.3   109  LEU109      0.0019
    145  CD1       11.7360   23.9060   -1.6570 C.3   109  LEU109      0.0001
    146  CD2       10.1600   24.6820   -3.4090 C.3   109  LEU109      0.0001
    147  N          3.7180   15.7220    4.1650 N.3   113  ASP113     -0.1239
    148  CA         4.3920   14.5530    4.7280 C.3   113  ASP113      0.1674
    149  C          3.3930   13.7550    5.5540 C.2   113  ASP113      0.2266
    150  O          2.4960   14.3230    6.1760 O.2   113  ASP113     -0.2867
    151  CB         5.5530   14.9460    5.6590 C.3   113  ASP113      0.1410
    152  CG         6.7580   15.5060    4.9200 C.2   113  ASP113      0.3668
    153  OD1        6.9220   15.2290    3.7170 O.co2 113  ASP113     -0.2456
    154  OD2        7.5620   16.2180    5.5620 O.co2 113  ASP113     -0.2456
@<TRIPOS>BOND
     1   146   144    1
     2   144   145    1
     3   144   143    1
     4   140   143    1
     5   140   139    1
     6   140   141    1
     7   141   142    2
     8    16    14    1
     9    46    45    1
    10   124   122   ar
    11   124   123   ar
    12   138   137    1
    13    45    47    1
    14    45    42    1
    15   137   134    1
    16    48    49    1
    17    48    43   am
    18   122   120   ar
    19    49    50    1
    20   123   121   ar
    21    14    15    1
    22    14    13    1
    23   128   127    2
    24    50    52   am
    25    50    51    2
    26    42    43    1
    27    42    41    1
    28    52    53    1
    29   136   135    2
    30   131   130    1
    31    43    44    2
    32    56    53    1
    33    56    57    1
    34   120   119   ar
    35   120   118   ar
    36   133   134    1
    37   134   135    1
    38   121   118   ar
    39    13    10    1
    40    53    54    1
    41    10     9    1
    42    10    11    1
    43   129   130    1
    44   129   126    1
    45    57    59   am
    46    57    58    2
    47   114   113    2
    48   127   126    1
    49   119   117   ar
    50   118   116   ar
    51   130   132    1
    52    12    11    2
    53   125   126    1
    54   153   152   ar
    55    82    81    2
    56   147   148    1
    57   113   112    1
    58    54    60   am
    59    54    55    2
    60   117   116   ar
    61   116   115    1
    62   111   112    1
    63   148   149    1
    64   148   151    1
    65    88    89    1
    66    88    85    1
    67    60    61    1
    68   152   154   ar
    69   152   151    1
    70    83    80    1
    71    81    80    1
    72   112   115    1
    73    80    79    1
    74    40    39    1
    75   149   150    2
    76     4     3    2
    77     3     2    1
    78     7     6    2
    79    63    62    2
    80    85    84    1
    81    85    86    1
    82     8     6   am
    83     6     5    1
    84    61    64    1
    85    61    62    1
    86    95    94    1
    87    22    21    1
    88    37    38    2
    89    37    36    1
    90    39    36    1
    91     5     2    1
    92    96    94    1
    93    17    18    1
    94     2     1    1
    95    86    87    2
    96    71    73   ar
    97    71    70   ar
    98    73    74   ar
    99    94    91    1
   100    36    35    1
   101    21    18    1
   102    91    90    1
   103    91    92    1
   104   105   103   ar
   105   105   106   ar
   106    70    69    1
   107    70    72   ar
   108    74    76   ar
   109    74    72   ar
   110    18    19    1
   111    76    78   ar
   112    69    66    1
   113   103   102   ar
   114    72    75   ar
   115   108   106   ar
   116   108   110   ar
   117    34    33    1
   118   106   104   ar
   119    78    77   ar
   120    75    77   ar
   121    92    93    2
   122    68    67    2
   123   102   104   ar
   124   102   101    1
   125   110   109   ar
   126    19    20    2
   127   104   107   ar
   128    31    33   ar
   129    31    29   ar
   130    98    97    1
   131    98   101    1
   132    98    99    1
   133    33    32   ar
   134    66    67    1
   135    66    65    1
   136   109   107   ar
   137    99   100    2
   138    29    28   ar
   139    32    30   ar
   140    28    30   ar
   141    28    27    1
   142    25    26    2
   143    25    24    1
   144    27    24    1
   145    24    23    1
