@<TRIPOS>MOLECULE
tmp/1ld8B02.pdb
 158 155 0 0 0
SMALL
GASTEIGER

@<TRIPOS>ATOM
      1  N         13.1440  143.7090   -4.3230 N.3    80  LEU80      -0.1245
      2  CA        12.3400  142.5450   -4.6870 C.3    80  LEU80       0.1561
      3  C         11.3050  142.9000   -5.7470 C.2    80  LEU80       0.2260
      4  O         10.3430  142.1610   -5.9620 O.2    80  LEU80      -0.2867
      5  CB        11.6320  141.9790   -3.4510 C.3    80  LEU80       0.0270
      6  CG        12.5390  141.2740   -2.4370 C.3    80  LEU80       0.0019
      7  CD1       11.7410  140.8820   -1.1980 C.3    80  LEU80       0.0001
      8  CD2       13.1480  140.0460   -3.0820 C.3    80  LEU80       0.0001
      9  N         10.5600  140.1900   -8.0630 N.3    83  SER83      -0.1217
     10  CA        10.1850  138.9290   -7.4150 C.3    83  SER83       0.1889
     11  C          8.8550  139.0600   -6.6750 C.2    83  SER83       0.2288
     12  O          8.6500  138.4170   -5.6480 O.2    83  SER83      -0.2866
     13  CB        11.2590  138.5040   -6.4040 C.3    83  SER83       0.2089
     14  OG        12.4650  138.1330   -7.0450 O.3    83  SER83      -0.2183
     15  N          6.8840  136.0360   -5.7310 N.3    86  TRP86      -0.1241
     16  CA         7.4920  135.3400   -4.5960 C.3    86  TRP86       0.1605
     17  C          6.8850  135.8700   -3.2980 C.2    86  TRP86       0.2264
     18  O          6.6070  135.1050   -2.3730 O.2    86  TRP86      -0.2867
     19  CB         9.0110  135.5550   -4.5630 C.3    86  TRP86       0.0550
     20  CG         9.7810  134.6270   -5.4540 C.ar   86  TRP86       0.0003
     21  CD1       10.3980  134.9350   -6.6370 C.ar   86  TRP86       0.0946
     22  CD2       10.0200  133.2330   -5.2280 C.ar   86  TRP86       0.0152
     23  NE1       11.0080  133.8150   -7.1600 N.ar   86  TRP86      -0.2442
     24  CE2       10.7900  132.7580   -6.3140 C.ar   86  TRP86       0.0810
     25  CE3        9.6560  132.3380   -4.2110 C.ar   86  TRP86       0.0012
     26  CZ2       11.2050  131.4230   -6.4130 C.ar   86  TRP86       0.0191
     27  CZ3       10.0690  131.0110   -4.3060 C.ar   86  TRP86       0.0001
     28  CH2       10.8380  130.5680   -5.4010 C.ar   86  TRP86       0.0015
     29  N          5.1910  133.4320   -0.6570 N.3    90  TRP90      -0.1241
     30  CA         5.6870  133.3360    0.7160 C.3    90  TRP90       0.1605
     31  C          4.6230  133.7230    1.7370 C.2    90  TRP90       0.2264
     32  O          4.4660  133.0640    2.7690 O.2    90  TRP90      -0.2867
     33  CB         6.9120  134.2340    0.9280 C.3    90  TRP90       0.0550
     34  CG         8.1230  133.8370    0.1380 C.ar   90  TRP90       0.0003
     35  CD1        8.5090  132.5670   -0.1970 C.ar   90  TRP90       0.0946
     36  CD2        9.1270  134.7140   -0.3890 C.ar   90  TRP90       0.0152
     37  NE1        9.6900  132.6040   -0.9020 N.ar   90  TRP90      -0.2442
     38  CE2       10.0910  133.9070   -1.0360 C.ar   90  TRP90       0.0810
     39  CE3        9.3040  136.1060   -0.3800 C.ar   90  TRP90       0.0012
     40  CZ2       11.2150  134.4460   -1.6700 C.ar   90  TRP90       0.0191
     41  CZ3       10.4290  136.6430   -1.0130 C.ar   90  TRP90       0.0001
     42  CH2       11.3670  135.8130   -1.6470 C.ar   90  TRP90       0.0015
     43  N         11.7480  131.3330  -11.8110 N.3   135  ALA135     -0.1245
     44  CA        11.6020  131.4980  -10.3610 C.3   135  ALA135      0.1562
     45  C         10.2350  132.0900  -10.0210 C.2   135  ALA135      0.2260
     46  O          9.4710  131.4900   -9.2660 O.2   135  ALA135     -0.2867
     47  CB        12.7330  132.3670   -9.8030 C.3   135  ALA135      0.0290
     48  N         18.0230  124.9270   -9.9580 N.3   186  ARG186     -0.1245
     49  CA        16.7600  125.5690   -9.6110 C.3   186  ARG186      0.1563
     50  C         15.7840  125.5160  -10.7880 C.2   186  ARG186      0.2260
     51  O         14.5830  125.3100  -10.5960 O.2   186  ARG186     -0.2867
     52  CB        16.9720  127.0330   -9.2210 C.3   186  ARG186      0.0307
     53  CG        17.7160  127.2750   -7.9100 C.3   186  ARG186      0.0489
     54  CD        17.9820  128.7730   -7.7530 C.3   186  ARG186      0.2205
     55  NE        18.6300  129.2880   -8.9580 N.pl3 186  ARG186     -0.0865
     56  CZ        18.5300  130.5380   -9.4000 C.cat 186  ARG186      0.5346
     57  NH1       17.8060  131.4350   -8.7360 N.pl3 186  ARG186      0.1354
     58  NH2       19.1400  130.8820  -10.5260 N.pl3 186  ARG186      0.1354
     59  N         24.7760  122.0730   -1.7070 N.3   232  HIS232     -0.1241
     60  CA        24.0500  123.0730   -0.9350 C.3   232  HIS232      0.1621
     61  C         22.6050  122.6250   -0.7400 C.2   232  HIS232      0.2264
     62  O         21.9830  122.0980   -1.6600 O.2   232  HIS232     -0.2867
     63  CB        24.0880  124.4320   -1.6420 C.3   232  HIS232      0.0745
     64  CG        23.7210  125.5780   -0.7510 C.ar  232  HIS232      0.0817
     65  ND1       22.4350  125.7920   -0.3030 N.ar  232  HIS232     -0.2268
     66  CD2       24.4840  126.5400   -0.1780 C.ar  232  HIS232      0.1154
     67  CE1       22.4220  126.8340    0.5100 C.ar  232  HIS232      0.1986
     68  NE2       23.6530  127.3050    0.6030 N.ar  232  HIS232     -0.2212
     69  N         20.0720  123.7540   -3.5240 N.3   235  TYR235     -0.1241
     70  CA        20.1460  123.0350   -4.7890 C.3   235  TYR235      0.1605
     71  C         19.8320  121.5530   -4.6080 C.2   235  TYR235      0.2264
     72  O         19.3440  120.9020   -5.5290 O.2   235  TYR235     -0.2867
     73  CB        21.5380  123.2100   -5.4020 C.3   235  TYR235      0.0534
     74  CG        21.8160  124.6310   -5.8370 C.ar  235  TYR235     -0.0201
     75  CD1       23.0070  125.2680   -5.4940 C.ar  235  TYR235     -0.0009
     76  CD2       20.8960  125.3320   -6.6210 C.ar  235  TYR235     -0.0009
     77  CE1       23.2770  126.5690   -5.9260 C.ar  235  TYR235      0.0417
     78  CE2       21.1550  126.6300   -7.0550 C.ar  235  TYR235      0.0417
     79  CZ        22.3470  127.2390   -6.7060 C.ar  235  TYR235      0.1957
     80  OH        22.6030  128.5200   -7.1440 O.3   235  TYR235     -0.2866
     81  N         20.7820  128.4820    9.7390 N.3   281  ASP281     -0.1239
     82  CA        19.8730  129.4810    9.1770 C.3   281  ASP281      0.1674
     83  C         18.4620  128.8880    9.1550 C.2   281  ASP281      0.2266
     84  O         18.2440  127.8010    8.6190 O.2   281  ASP281     -0.2867
     85  CB        20.3230  129.8510    7.7520 C.3   281  ASP281      0.1410
     86  CG        19.4050  130.8680    7.0760 C.2   281  ASP281      0.3668
     87  OD1       18.2530  131.0490    7.5220 O.co2 281  ASP281     -0.2456
     88  OD2       19.8370  131.4740    6.0690 O.co2 281  ASP281     -0.2456
     89  N         15.8400  129.3050    7.3580 N.3   283  CYS283     -0.1221
     90  CA        15.2050  128.8970    6.1030 C.3   283  CYS283      0.1808
     91  C         15.5730  127.4680    5.6990 C.2   283  CYS283      0.2601
     92  O         14.8030  126.8020    5.0090 O.2   283  CYS283     -0.2717
     93  CB        15.5400  129.8790    4.9640 C.3   283  CYS283      0.0970
     94  SG        17.2690  129.8920    4.4330 S.3   283  CYS283     -0.0800
     95  N         16.7390  126.9870    6.1290 N.am  284  TYR284     -0.1976
     96  CA        17.1400  125.6240    5.7940 C.3   284  TYR284      0.1639
     97  C         16.3050  124.6180    6.5790 C.2   284  TYR284      0.2290
     98  O         16.4260  123.4110    6.3830 O.2   284  TYR284     -0.2864
     99  CB        18.6420  125.4280    6.0420 C.3   284  TYR284      0.0560
    100  CG        19.4740  126.3140    5.1380 C.ar  284  TYR284     -0.0198
    101  CD1       20.5150  127.0870    5.6490 C.ar  284  TYR284     -0.0009
    102  CD2       19.1650  126.4370    3.7810 C.ar  284  TYR284     -0.0009
    103  CE1       21.2180  127.9670    4.8350 C.ar  284  TYR284      0.0417
    104  CE2       19.8610  127.3110    2.9580 C.ar  284  TYR284      0.0417
    105  CZ        20.8840  128.0770    3.4890 C.ar  284  TYR284      0.1957
    106  OH        21.5500  128.9700    2.6800 O.3   284  TYR284     -0.2866
    107  N         14.5200  123.7890    3.2880 N.3   287  TRP287     -0.1241
    108  CA        15.3800  123.2990    2.2130 C.3   287  TRP287      0.1605
    109  C         16.1190  122.0140    2.5730 C.2   287  TRP287      0.2264
    110  O         16.1930  121.0930    1.7590 O.2   287  TRP287     -0.2867
    111  CB        16.3890  124.3780    1.7910 C.3   287  TRP287      0.0550
    112  CG        15.7680  125.6780    1.3160 C.ar  287  TRP287      0.0003
    113  CD1       15.9590  126.9230    1.8570 C.ar  287  TRP287      0.0946
    114  CD2       14.8770  125.8590    0.2050 C.ar  287  TRP287      0.0152
    115  NE1       15.2450  127.8640    1.1530 N.ar  287  TRP287     -0.2442
    116  CE2       14.5730  127.2410    0.1330 C.ar  287  TRP287      0.0810
    117  CE3       14.3060  124.9900   -0.7390 C.ar  287  TRP287      0.0012
    118  CZ2       13.7220  127.7750   -0.8470 C.ar  287  TRP287      0.0191
    119  CZ3       13.4550  125.5240   -1.7160 C.ar  287  TRP287      0.0001
    120  CH2       13.1740  126.9040   -1.7590 C.ar  287  TRP287      0.0015
    121  N         16.3480  134.2280    9.8830 N.3   336  ASP336     -0.1239
    122  CA        17.5540  133.4270    9.7160 C.3   336  ASP336      0.1674
    123  C         18.1080  132.9670   11.0650 C.2   336  ASP336      0.2266
    124  O         18.1470  131.7670   11.3650 O.2   336  ASP336     -0.2867
    125  CB        18.5700  134.2910    8.9580 C.3   336  ASP336      0.1410
    126  CG        19.9700  133.7140    8.9460 C.2   336  ASP336      0.3668
    127  OD1       20.2620  132.7350    9.6610 O.co2 336  ASP336     -0.2456
    128  OD2       20.7960  134.2800    8.2090 O.co2 336  ASP336     -0.2456
    129  N         11.8620  138.8220    7.4630 N.3   343  ASP343     -0.1239
    130  CA        11.5390  139.0070    6.0550 C.3   343  ASP343      0.1674
    131  C         10.5590  137.8970    5.7070 C.2   343  ASP343      0.2266
    132  O         10.4830  136.8870    6.4090 O.2   343  ASP343     -0.2867
    133  CB        12.7890  138.9800    5.1560 C.3   343  ASP343      0.1410
    134  CG        13.5350  137.6660    5.2090 C.2   343  ASP343      0.3668
    135  OD1       12.9320  136.6180    4.9150 O.co2 343  ASP343     -0.2456
    136  OD2       14.7400  137.6900    5.5370 O.co2 343  ASP343     -0.2456
    137  N         10.5520  135.7870    3.2320 N.3   345  TYR345     -0.1227
    138  CA        11.2140  134.5680    2.7830 C.3   345  TYR345      0.1736
    139  C         11.4720  133.6600    3.9910 C.2   345  TYR345      0.2595
    140  O         11.0910  132.4890    3.9880 O.2   345  TYR345     -0.2718
    141  CB        12.5370  134.9240    2.1000 C.3   345  TYR345      0.0548
    142  CG        13.4990  133.7630    1.9190 C.ar  345  TYR345     -0.0200
    143  CD1       13.4380  132.9400    0.7930 C.ar  345  TYR345     -0.0009
    144  CD2       14.4860  133.5040    2.8720 C.ar  345  TYR345     -0.0009
    145  CE1       14.3470  131.8860    0.6200 C.ar  345  TYR345      0.0417
    146  CE2       15.3920  132.4590    2.7120 C.ar  345  TYR345      0.0417
    147  CZ        15.3210  131.6550    1.5880 C.ar  345  TYR345      0.1957
    148  OH        16.2270  130.6260    1.4390 O.3   345  TYR345     -0.2866
    149  N         12.1170  134.1950    5.0250 N.am  346  HIS346     -0.1975
    150  CA        12.3990  133.3850    6.2070 C.3   346  HIS346      0.1656
    151  C         11.1340  133.0160    6.9630 C.2   346  HIS346      0.2291
    152  O         11.0590  131.9500    7.5710 O.2   346  HIS346     -0.2864
    153  CB        13.4060  134.0810    7.1350 C.3   346  HIS346      0.0771
    154  CG        14.8140  134.0270    6.6250 C.ar  346  HIS346      0.0820
    155  ND1       15.4070  135.0760    5.9540 N.ar  346  HIS346     -0.2267
    156  CD2       15.7120  133.0130    6.6040 C.ar  346  HIS346      0.1154
    157  CE1       16.6070  134.7080    5.5390 C.ar  346  HIS346      0.1986
    158  NE2       16.8150  133.4610    5.9190 N.ar  346  HIS346     -0.2212
@<TRIPOS>BOND
     1    43    44    1
     2    50    51    2
     3    50    49    1
     4    58    56    1
     5    44    45    1
     6    44    47    1
     7    45    46    2
     8    48    49    1
     9    49    52    1
    10    56    55    2
    11    56    57    1
    12    52    53    1
    13    55    54    1
    14     9    10    1
    15    53    54    1
    16    10    11    1
    17    10    13    1
    18    23    21   ar
    19    23    24   ar
    20    80    79    1
    21    78    79   ar
    22    78    76   ar
    23    14    13    1
    24    79    77   ar
    25    11    12    2
    26    21    20   ar
    27    76    74   ar
    28    26    24   ar
    29    26    28   ar
    30    24    22   ar
    31     4     3    2
    32    77    75   ar
    33    74    75   ar
    34    74    73    1
    35     3     2    1
    36    15    16    1
    37    72    71    2
    38    20    22   ar
    39    20    19    1
    40    73    70    1
    41    28    27   ar
    42    22    25   ar
    43    70    71    1
    44    70    69    1
    45     2     1    1
    46     2     5    1
    47    16    19    1
    48    16    17    1
    49    27    25   ar
    50     5     6    1
    51    17    18    2
    52     8     6    1
    53     6     7    1
    54   120   119   ar
    55   120   118   ar
    56   119   117   ar
    57    59    60    1
    58    40    42   ar
    59    40    38   ar
    60    62    61    2
    61    42    41   ar
    62    63    60    1
    63    63    64    1
    64    38    37   ar
    65    38    36   ar
    66    41    39   ar
    67    60    61    1
    68    37    35   ar
    69   118   116   ar
    70    64    65   ar
    71    64    66   ar
    72   117   114   ar
    73    29    30    1
    74    36    39   ar
    75    36    34   ar
    76    65    67   ar
    77    35    34   ar
    78    66    68   ar
    79   116   114   ar
    80   116   115   ar
    81    34    33    1
    82   114   112   ar
    83    67    68   ar
    84   145   143   ar
    85   145   147   ar
    86    30    33    1
    87    30    31    1
    88   143   142   ar
    89   115   113   ar
    90   112   111    1
    91   112   113   ar
    92   148   147    1
    93   147   146   ar
    94    31    32    2
    95   110   109    2
    96   111   108    1
    97   142   141    1
    98   142   144   ar
    99   141   138    1
   100   108   109    1
   101   108   107    1
   102   106   105    1
   103   146   144   ar
   104   138   137    1
   105   138   139    1
   106   104   105   ar
   107   104   102   ar
   108   105   103   ar
   109   102   100   ar
   110   140   139    2
   111   139   149   am
   112    94    93    1
   113   103   101   ar
   114   135   134   ar
   115    93    90    1
   116    92    91    2
   117   149   150    1
   118   100   101   ar
   119   100    99    1
   120   133   134    1
   121   133   130    1
   122   134   136   ar
   123   157   158   ar
   124   157   155   ar
   125    91    90    1
   126    91    95   am
   127   131   130    1
   128   131   132    2
   129    96    99    1
   130    96    95    1
   131    96    97    1
   132   158   156   ar
   133   155   154   ar
   134   130   129    1
   135    88    86   ar
   136    90    89    1
   137   150   151    1
   138   150   153    1
   139    98    97    2
   140   156   154   ar
   141   154   153    1
   142   151   152    2
   143    86    87   ar
   144    86    85    1
   145    85    82    1
   146   128   126   ar
   147    84    83    2
   148   126   125    1
   149   126   127   ar
   150   125   122    1
   151    83    82    1
   152    82    81    1
   153   122   121    1
   154   122   123    1
   155   123   124    2
