@<TRIPOS>MOLECULE
tmp/1ldcB00.pdb
 215 204 0 0 0
SMALL
GASTEIGER

@<TRIPOS>ATOM
      1  N         40.3000   59.9530  -26.7010 N.3    42  PHE42      -0.1227
      2  CA        40.9400   60.9940  -27.5230 C.3    42  PHE42       0.1736
      3  C         40.2610   62.3530  -27.2600 C.2    42  PHE42       0.2595
      4  O         40.9530   63.3630  -27.3430 O.2    42  PHE42      -0.2718
      5  CB        40.8610   60.6260  -29.0580 C.3    42  PHE42       0.0547
      6  CG        41.4110   61.7000  -30.0070 C.ar   42  PHE42      -0.0202
      7  CD1       42.7660   62.0590  -29.9970 C.ar   42  PHE42      -0.0042
      8  CD2       40.5560   62.4240  -30.8460 C.ar   42  PHE42      -0.0042
      9  CE1       43.2520   63.1130  -30.8060 C.ar   42  PHE42      -0.0003
     10  CE2       41.0570   63.4770  -31.6480 C.ar   42  PHE42      -0.0003
     11  CZ        42.4010   63.8310  -31.6350 C.ar   42  PHE42      -0.0000
     12  N         38.9790   62.4730  -26.8800 N.am   43  TYR43      -0.1976
     13  CA        38.3780   63.7780  -26.7260 C.3    43  TYR43       0.1639
     14  C         38.6350   64.4480  -25.3880 C.2    43  TYR43       0.2290
     15  O         39.0060   65.6170  -25.3360 O.2    43  TYR43      -0.2864
     16  CB        36.8630   63.6930  -26.9490 C.3    43  TYR43       0.0560
     17  CG        36.3600   63.4800  -28.3970 C.ar   43  TYR43      -0.0198
     18  CD1       37.1740   63.6630  -29.5260 C.ar   43  TYR43      -0.0009
     19  CD2       35.0400   63.0850  -28.5810 C.ar   43  TYR43      -0.0009
     20  CE1       36.6800   63.4600  -30.8040 C.ar   43  TYR43       0.0417
     21  CE2       34.5470   62.8800  -29.8460 C.ar   43  TYR43       0.0417
     22  CZ        35.3630   63.0730  -30.9330 C.ar   43  TYR43       0.1957
     23  OH        34.8130   62.9030  -32.1820 O.3    43  TYR43      -0.2866
     24  N         45.0380   71.2360  -17.7580 N.3    53  HIS53      -0.1241
     25  CA        43.7120   70.9830  -18.2720 C.3    53  HIS53       0.1621
     26  C         42.6970   71.4080  -17.2300 C.2    53  HIS53       0.2264
     27  O         41.9410   72.3090  -17.5780 O.2    53  HIS53      -0.2867
     28  CB        43.5950   69.5050  -18.6120 C.3    53  HIS53       0.0745
     29  CG        42.2120   69.0500  -19.0440 C.ar   53  HIS53       0.0817
     30  ND1       41.5400   69.3530  -20.1310 N.ar   53  HIS53      -0.2268
     31  CD2       41.4270   68.1950  -18.3090 C.ar   53  HIS53       0.1154
     32  CE1       40.3990   68.7230  -20.0660 C.ar   53  HIS53       0.1986
     33  NE2       40.3220   68.0190  -18.9720 N.ar   53  HIS53      -0.2212
     34  N         42.8800   75.3070  -16.2640 N.3    56  ASN56      -0.1240
     35  CA        42.4520   76.3280  -17.2310 C.3    56  ASN56       0.1653
     36  C         41.0990   76.7800  -16.8280 C.2    56  ASN56       0.2266
     37  O         40.7890   77.9450  -16.9030 O.2    56  ASN56      -0.2867
     38  CB        42.2830   75.8240  -18.6320 C.3    56  ASN56       0.1155
     39  CG        43.5330   75.4990  -19.3600 C.2    56  ASN56       0.2627
     40  OD1       44.5140   76.1990  -19.2190 O.2    56  ASN56      -0.2716
     41  ND2       43.6030   74.4570  -20.1630 N.am   56  ASN56      -0.0877
     42  N         36.0770   76.0570  -31.7900 N.3    94  SER94      -0.1202
     43  CA        37.4800   76.0110  -31.9460 C.3    94  SER94       0.2020
     44  C         37.6520   74.6520  -32.5730 C.2    94  SER94       0.2619
     45  O         36.7480   73.7890  -32.5740 O.2    94  SER94      -0.2717
     46  CB        38.1230   76.1110  -30.5690 C.3    94  SER94       0.2103
     47  OG        39.4820   76.6140  -30.5540 O.3    94  SER94      -0.2182
     48  N         38.8960   74.5130  -33.0560 N.am   95  ALA95      -0.1965
     49  CA        39.3300   73.4040  -33.8590 C.3    95  ALA95       0.1728
     50  C         39.6020   72.0030  -33.3580 C.2    95  ALA95       0.2617
     51  O         40.7580   71.5950  -33.3540 O.2    95  ALA95      -0.2715
     52  CB        40.5370   73.8800  -34.5600 C.3    95  ALA95       0.0334
     53  N         38.6670   71.2170  -32.8610 N.am   96  THR96      -0.1937
     54  CA        38.8820   69.7910  -32.6050 C.3    96  THR96       0.2028
     55  C         39.4800   68.9810  -33.7840 C.2    96  THR96       0.2642
     56  O         39.0300   69.1360  -34.9240 O.2    96  THR96      -0.2714
     57  CB        37.4970   69.2930  -32.1890 C.3    96  THR96       0.1808
     58  OG1       37.5400   69.2590  -30.7730 O.3    96  THR96      -0.2208
     59  CG2       37.0710   67.9820  -32.8390 C.3    96  THR96       0.0379
     60  N         40.4510   68.0740  -33.6260 N.am   97  ALA97      -0.1977
     61  CA        40.8590   67.2010  -34.7390 C.3    97  ALA97       0.1597
     62  C         39.8430   66.0550  -34.9260 C.2    97  ALA97       0.2287
     63  O         39.0870   65.7800  -33.9990 O.2    97  ALA97      -0.2864
     64  CB        42.2040   66.5870  -34.4510 C.3    97  ALA97       0.0319
     65  N         40.0580   72.1800  -38.5270 N.3   127  SER127     -0.1217
     66  CA        41.2950   71.5220  -38.2350 C.3   127  SER127      0.1889
     67  C         42.0280   71.0940  -39.4810 C.2   127  SER127      0.2288
     68  O         41.3750   70.4180  -40.2730 O.2   127  SER127     -0.2866
     69  CB        41.0260   70.3000  -37.4120 C.3   127  SER127      0.2089
     70  OG        42.2310   69.5780  -37.1890 O.3   127  SER127     -0.2183
     71  N         43.7110   68.6960  -39.4210 N.3   129  LEU129     -0.1245
     72  CA        43.5100   67.2480  -39.2810 C.3   129  LEU129      0.1561
     73  C         42.0810   66.8480  -38.9080 C.2   129  LEU129      0.2260
     74  O         41.8120   65.9400  -38.0930 O.2   129  LEU129     -0.2867
     75  CB        44.4920   66.6930  -38.2550 C.3   129  LEU129      0.0270
     76  CG        45.8920   66.6370  -38.7830 C.3   129  LEU129      0.0019
     77  CD1       46.5340   67.9550  -38.6440 C.3   129  LEU129      0.0001
     78  CD2       46.7610   65.8130  -37.9060 C.3   129  LEU129      0.0001
     79  N         42.6990   76.5400  -39.3580 N.3   151  GLN151     -0.1245
     80  CA        43.8970   76.3790  -38.5470 C.3   151  GLN151      0.1566
     81  C         44.6440   75.3070  -39.3140 C.2   151  GLN151      0.2260
     82  O         44.1470   74.2710  -39.8000 O.2   151  GLN151     -0.2867
     83  CB        43.6520   75.9230  -37.0600 C.3   151  GLN151      0.0367
     84  CG        43.1960   74.5210  -36.6920 C.3   151  GLN151      0.0905
     85  CD        44.2650   73.4390  -36.6000 C.2   151  GLN151      0.2608
     86  OE1       43.9420   72.2270  -36.6140 O.2   151  GLN151     -0.2717
     87  NE2       45.5500   73.7870  -36.4520 N.am  151  GLN151     -0.0878
     88  N         48.2000   73.3580  -39.5450 N.3   153  TYR153     -0.1298
     89  CA        49.4000   72.8600  -38.9180 C.3   153  TYR153      0.1290
     90  C         50.3340   72.9580  -40.0950 C.3   153  TYR153      0.2013
     91  O         49.9410   72.3370  -41.0820 O.3   153  TYR153     -0.2188
     92  CB        49.3070   71.3830  -38.4990 C.3   153  TYR153      0.0480
     93  CG        48.8060   71.1610  -37.0760 C.ar  153  TYR153     -0.0204
     94  CD1       49.3410   71.7900  -35.9610 C.ar  153  TYR153     -0.0009
     95  CD2       47.7530   70.3070  -36.9240 C.ar  153  TYR153     -0.0009
     96  CE1       48.7940   71.5420  -34.7310 C.ar  153  TYR153      0.0417
     97  CE2       47.2060   70.0530  -35.6910 C.ar  153  TYR153      0.0417
     98  CZ        47.7330   70.6820  -34.6160 C.ar  153  TYR153      0.1957
     99  OH        47.1190   70.4450  -33.4180 O.3   153  TYR153     -0.2866
    100  N         48.6830   76.6800  -35.7530 N.3   179  THR179     -0.1218
    101  CA        48.7410   76.2490  -34.3620 C.3   179  THR179      0.1862
    102  C         50.1910   76.0330  -34.0350 C.2   179  THR179      0.2287
    103  O         50.7720   75.0490  -34.5080 O.2   179  THR179     -0.2866
    104  CB        47.9890   74.9660  -34.1730 C.3   179  THR179      0.1770
    105  OG1       46.5900   75.2460  -34.3470 O.3   179  THR179     -0.2211
    106  CG2       48.2960   74.3670  -32.8170 C.3   179  THR179      0.0375
    107  N         48.1800   80.4910  -33.0590 N.3   220  LYS220     -0.1245
    108  CA        47.3450   79.8460  -32.0540 C.3   220  LYS220      0.1561
    109  C         48.2320   79.0020  -31.1650 C.2   220  LYS220      0.2260
    110  O         48.8300   78.0360  -31.6610 O.2   220  LYS220     -0.2867
    111  CB        46.3610   78.9650  -32.7100 C.3   220  LYS220      0.0271
    112  CG        45.6580   78.0810  -31.7490 C.3   220  LYS220      0.0035
    113  CD        44.2040   77.6520  -32.1380 C.3   220  LYS220      0.0206
    114  CE        44.3850   76.1360  -31.9430 C.3   220  LYS220      0.1093
    115  NZ        43.2380   75.3540  -31.4770 N.3   220  LYS220     -0.1314
    116  N         46.8460   80.0600  -25.6570 N.3   242  SER242     -0.1217
    117  CA        46.3660   78.7240  -25.5050 C.3   242  SER242      0.1889
    118  C         47.5560   77.8530  -25.2590 C.2   242  SER242      0.2288
    119  O         48.6370   78.1270  -25.7540 O.2   242  SER242     -0.2866
    120  CB        45.7270   78.2710  -26.7500 C.3   242  SER242      0.2089
    121  OG        45.1370   76.9670  -26.7020 O.3   242  SER242     -0.2183
    122  N         46.7480   74.4740  -25.7560 N.3   244  HIS244     -0.1226
    123  CA        46.1060   73.4460  -26.5350 C.3   244  HIS244      0.1752
    124  C         45.0930   72.5710  -25.8330 C.2   244  HIS244      0.2596
    125  O         44.9210   71.4080  -26.1760 O.2   244  HIS244     -0.2718
    126  CB        47.2340   72.6530  -27.1520 C.3   244  HIS244      0.0759
    127  CG        46.9300   71.9400  -28.4630 C.ar  244  HIS244      0.0818
    128  ND1       47.4520   72.1780  -29.6590 N.ar  244  HIS244     -0.2268
    129  CD2       46.1260   70.8360  -28.5800 C.ar  244  HIS244      0.1154
    130  CE1       47.0060   71.2410  -30.4520 C.ar  244  HIS244      0.1986
    131  NE2       46.2090   70.4440  -29.8000 N.ar  244  HIS244     -0.2212
    132  N         44.3180   73.1240  -24.8970 N.am  245  GLY245     -0.1957
    133  CA        43.3470   72.3250  -24.1060 C.3   245  GLY245      0.1869
    134  C         44.0020   71.6300  -22.9200 C.2   245  GLY245      0.2309
    135  O         43.4690   70.6810  -22.3740 O.2   245  GLY245     -0.2863
    136  N         46.5340   69.8960  -23.3800 N.3   247  ARG247     -0.1245
    137  CA        46.9700   68.6120  -23.9650 C.3   247  ARG247      0.1563
    138  C         48.3860   68.6680  -24.5050 C.2   247  ARG247      0.2260
    139  O         48.9070   67.6640  -24.9820 O.2   247  ARG247     -0.2867
    140  CB        46.1710   68.1170  -25.1280 C.3   247  ARG247      0.0307
    141  CG        44.8330   68.7470  -25.2740 C.3   247  ARG247      0.0489
    142  CD        44.1980   68.1520  -26.4690 C.3   247  ARG247      0.2205
    143  NE        43.4080   67.1110  -25.8820 N.pl3 247  ARG247     -0.0865
    144  CZ        42.8890   66.1300  -26.5840 C.cat 247  ARG247      0.5346
    145  NH1       43.2430   65.8850  -27.8210 N.pl3 247  ARG247      0.1354
    146  NH2       42.0270   65.3580  -25.9600 N.pl3 247  ARG247      0.1354
    147  N         41.5770   80.4800  -24.9480 N.3   280  ASP280     -0.1225
    148  CA        40.6200   79.3580  -24.9280 C.3   280  ASP280      0.1805
    149  C         41.0340   78.3710  -23.8110 C.2   280  ASP280      0.2598
    150  O         42.0260   78.5900  -23.0860 O.2   280  ASP280     -0.2718
    151  CB        40.5570   78.6400  -26.3070 C.3   280  ASP280      0.1424
    152  CG        41.8590   77.9620  -26.7790 C.2   280  ASP280      0.3668
    153  OD1       42.8870   78.6070  -26.6050 O.co2 280  ASP280     -0.2456
    154  OD2       41.8690   76.8410  -27.3110 O.co2 280  ASP280     -0.2456
    155  N         40.2910   77.2620  -23.6590 N.am  281  GLY281     -0.1942
    156  CA        40.6010   76.3190  -22.6050 C.3   281  GLY281      0.2014
    157  C         39.8710   76.7690  -21.3320 C.2   281  GLY281      0.2639
    158  O         39.8330   77.9450  -20.9470 O.2   281  GLY281     -0.2714
    159  N         39.1990   75.7380  -20.8280 N.am  282  GLY282     -0.1939
    160  CA        38.3210   75.7150  -19.6910 C.3   282  GLY282      0.2014
    161  C         37.0060   76.4690  -19.7970 C.2   282  GLY282      0.2639
    162  O         36.2840   76.3710  -18.7970 O.2   282  GLY282     -0.2714
    163  N         36.5750   77.2380  -20.8320 N.am  283  VAL283     -0.1963
    164  CA        35.3460   78.0470  -20.7130 C.3   283  VAL283      0.1727
    165  C         34.2180   77.0390  -20.7930 C.2   283  VAL283      0.2616
    166  O         34.3210   75.9930  -21.4290 O.2   283  VAL283     -0.2715
    167  CB        35.2590   79.0550  -21.8280 C.3   283  VAL283      0.0290
    168  CG1       34.0410   79.9520  -21.6740 C.3   283  VAL283      0.0023
    169  CG2       36.5110   79.9130  -21.7740 C.3   283  VAL283      0.0023
    170  N         33.2680   77.2060  -19.9050 N.am  284  ARG284     -0.1977
    171  CA        32.2190   76.2170  -19.8030 C.3   284  ARG284      0.1597
    172  C         31.0150   76.9450  -19.3120 C.2   284  ARG284      0.2287
    173  O         29.9640   76.3450  -19.1740 O.2   284  ARG284     -0.2864
    174  CB        32.5150   75.0970  -18.7890 C.3   284  ARG284      0.0334
    175  CG        33.7330   74.2200  -19.0120 C.3   284  ARG284      0.0492
    176  CD        33.7660   73.0460  -20.0190 C.3   284  ARG284      0.2205
    177  NE        34.7220   73.3640  -21.0870 N.pl3 284  ARG284     -0.0865
    178  CZ        35.9030   72.7230  -21.2950 C.cat 284  ARG284      0.5346
    179  NH1       36.2660   71.6450  -20.5980 N.pl3 284  ARG284      0.1354
    180  NH2       36.7260   73.1380  -22.2580 N.pl3 284  ARG284      0.1354
    181  N         37.5390   80.8650  -27.0890 N.3   301  GLY301     -0.1210
    182  CA        37.0980   79.6970  -27.8090 C.3   301  GLY301      0.1956
    183  C         36.8750   78.4540  -26.9820 C.2   301  GLY301      0.2612
    184  O         37.4460   78.2660  -25.9000 O.2   301  GLY301     -0.2717
    185  N         36.1310   77.5460  -27.5940 N.am  302  LEU302     -0.1965
    186  CA        35.7450   76.3240  -26.9370 C.3   302  LEU302      0.1728
    187  C         35.9080   75.1360  -27.8410 C.2   302  LEU302      0.2617
    188  O         35.2660   75.1140  -28.8630 O.2   302  LEU302     -0.2715
    189  CB        34.2890   76.2630  -26.5220 C.3   302  LEU302      0.0311
    190  CG        33.7540   77.1230  -25.4360 C.3   302  LEU302      0.0022
    191  CD1       33.7720   78.6170  -25.7970 C.3   302  LEU302      0.0001
    192  CD2       32.3490   76.5990  -25.1510 C.3   302  LEU302      0.0001
    193  N         36.7350   74.1660  -27.4840 N.am  303  GLY303     -0.1940
    194  CA        36.8590   72.9480  -28.2290 C.3   303  GLY303      0.2014
    195  C         35.8400   71.9270  -27.7310 C.2   303  GLY303      0.2635
    196  O         34.7310   71.8270  -28.2540 O.2   303  GLY303     -0.2714
    197  N         36.1550   71.2090  -26.6460 N.am  304  ARG304     -0.2030
    198  CA        35.3560   70.1090  -26.1270 C.3   304  ARG304      0.1283
    199  C         33.8650   70.2700  -25.9600 C.3   304  ARG304      0.2036
    200  O         33.1920   69.3050  -26.3350 O.3   304  ARG304     -0.2185
    201  CB        35.9290   69.6490  -24.7760 C.3   304  ARG304      0.0281
    202  CG        36.7860   68.3950  -24.8850 C.3   304  ARG304      0.0488
    203  CD        37.7590   68.1230  -23.7370 C.3   304  ARG304      0.2205
    204  NE        38.8130   69.1120  -23.6020 N.pl3 304  ARG304     -0.0865
    205  CZ        40.0850   68.7600  -23.3810 C.cat 304  ARG304      0.5346
    206  NH1       40.4720   67.5060  -23.4240 N.pl3 304  ARG304      0.1354
    207  NH2       41.0340   69.6630  -23.1620 N.pl3 304  ARG304      0.1354
    208  N         32.4650   69.7890  -29.4600 N.3   307  LEU307     -0.1301
    209  CA        32.7840   68.3900  -29.6810 C.3   307  LEU307      0.1247
    210  C         31.8600   67.4840  -28.9020 C.3   307  LEU307      0.2009
    211  O         31.4450   66.5510  -29.5510 O.3   307  LEU307     -0.2188
    212  CB        34.1300   68.0720  -29.2200 C.3   307  LEU307      0.0217
    213  CG        35.0430   67.5190  -30.1800 C.3   307  LEU307      0.0015
    214  CD1       36.1720   66.9020  -29.3890 C.3   307  LEU307      0.0000
    215  CD2       34.3970   66.4290  -30.9930 C.3   307  LEU307      0.0000
@<TRIPOS>BOND
     1    91    90    1
     2    68    67    2
     3    90    89    1
     4    82    81    2
     5    88    89    1
     6    67    66    1
     7    71    72    1
     8    79    80    1
     9    81    80    1
    10    72    73    1
    11    72    75    1
    12    89    92    1
    13    73    74    2
    14    76    77    1
    15    76    75    1
    16    76    78    1
    17    80    83    1
    18    65    66    1
    19    92    93    1
    20    66    69    1
    21    69    70    1
    22    93    95   ar
    23    93    94   ar
    24    83    84    1
    25    95    97   ar
    26    84    85    1
    27    86    85    2
    28    85    87   am
    29    94    96   ar
    30   100   101    1
    31    97    98   ar
    32    62    61    1
    33    62    63    2
    34    56    55    2
    35    61    64    1
    36    61    60    1
    37    96    98   ar
    38    98    99    1
    39    52    49    1
    40   103   102    2
    41   101   104    1
    42   101   102    1
    43   105   104    1
    44   104   106    1
    45    49    50    1
    46    49    48    1
    47    55    60   am
    48    55    54    1
    49    50    51    2
    50    50    53   am
    51   107   108    1
    52    48    44   am
    53    53    54    1
    54    59    57    1
    55   111   108    1
    56   111   112    1
    57    54    57    1
    58    45    44    2
    59    44    43    1
    60    57    58    1
    61    23    22    1
    62   113   114    1
    63   113   112    1
    64   108   109    1
    65    43    42    1
    66    43    46    1
    67   114   115    1
    68   110   109    2
    69    10    11   ar
    70    10     8   ar
    71    11     9   ar
    72   215   213    1
    73    22    20   ar
    74    22    21   ar
    75     8     6   ar
    76     9     7   ar
    77    20    18   ar
    78    46    47    1
    79   130   131   ar
    80   130   128   ar
    81   213   214    1
    82   213   212    1
    83     6     7   ar
    84     6     5    1
    85    21    19   ar
    86   131   129   ar
    87   209   208    1
    88   209   212    1
    89   209   210    1
    90   128   127   ar
    91   211   210    1
    92    18    17   ar
    93     5     2    1
    94   188   187    2
    95    19    17   ar
    96   129   127   ar
    97   127   126    1
    98    17    16    1
    99   196   195    2
   100   194   195    1
   101   194   193    1
   102   187   193   am
   103   187   186    1
   104   145   144    1
   105   182   181    1
   106   182   183    1
   107   195   197   am
   108   185   183   am
   109   185   186    1
   110     2     3    1
   111     2     1    1
   112     4     3    2
   113   154   152   ar
   114     3    12   am
   115   126   123    1
   116   183   184    2
   117    16    13    1
   118   186   189    1
   119    12    13    1
   120   152   153   ar
   121   152   151    1
   122   120   121    1
   123   120   117    1
   124    13    14    1
   125   197   198    1
   126   144   146    1
   127   144   143    2
   128   123   124    1
   129   123   122    1
   130   189   190    1
   131   142   143    1
   132   142   141    1
   133   200   199    1
   134   151   148    1
   135   125   124    2
   136   198   199    1
   137   198   201    1
   138   124   132   am
   139   191   190    1
   140   119   118    2
   141   116   117    1
   142   117   118    1
   143   190   192    1
   144    14    15    2
   145   141   140    1
   146   140   137    1
   147   139   138    2
   148   147   148    1
   149   148   149    1
   150   132   133    1
   151   202   201    1
   152   202   203    1
   153   138   137    1
   154   133   134    1
   155   137   136    1
   156   149   155   am
   157   149   150    2
   158   203   204    1
   159   155   156    1
   160   204   205    2
   161   206   205    1
   162   205   207    1
   163   134   135    2
   164   156   157    1
   165   180   178    1
   166   167   169    1
   167   167   168    1
   168   167   164    1
   169   166   165    2
   170   157   158    2
   171   157   159   am
   172   178   177    2
   173   178   179    1
   174   177   176    1
   175   163   164    1
   176   163   161   am
   177   159   160    1
   178   165   164    1
   179   165   170   am
   180    41    39   am
   181    30    32   ar
   182    30    29   ar
   183    32    33   ar
   184   176   175    1
   185   170   171    1
   186   171   172    1
   187   171   174    1
   188   161   160    1
   189   161   162    2
   190    39    40    2
   191    39    38    1
   192   172   173    2
   193    29    28    1
   194    29    31   ar
   195   175   174    1
   196    33    31   ar
   197    38    35    1
   198    28    25    1
   199    25    24    1
   200    25    26    1
   201    27    26    2
   202    35    36    1
   203    35    34    1
   204    37    36    2
