@<TRIPOS>MOLECULE
tmp/1ldeB01.pdb
 107 100 0 0 0
SMALL
GASTEIGER

@<TRIPOS>ATOM
      1  N         38.2220  175.1280   47.8010 N.3    46  CYS46      -0.1292
      2  CA        38.1610  176.6160   47.9640 C.3    46  CYS46       0.1363
      3  C         39.0940  177.0960   49.0760 C.3    46  CYS46       0.2019
      4  O         39.3010  176.3180   50.0960 O.3    46  CYS46      -0.2188
      5  CB        36.7850  176.9760   48.4780 C.3    46  CYS46       0.0903
      6  SG        36.4440  178.7080   48.7720 S.3    46  CYS46      -0.0805
      7  N         38.5510  178.8670   51.6330 N.3    48  SER48      -0.1217
      8  CA        37.8970  178.8880   52.8740 C.3    48  SER48       0.1889
      9  C         37.9970  177.5210   53.6400 C.2    48  SER48       0.2288
     10  O         37.9560  177.5640   54.8950 O.2    48  SER48      -0.2866
     11  CB        36.4410  179.2180   52.7480 C.3    48  SER48       0.2089
     12  OG        36.2780  180.3910   51.9430 O.3    48  SER48      -0.2183
     13  N         39.1940  180.4500   59.7770 N.3    57  LEU57      -0.1245
     14  CA        37.7260  180.3800   59.8310 C.3    57  LEU57       0.1561
     15  C         37.4220  179.3210   60.8650 C.2    57  LEU57       0.2260
     16  O         37.7490  178.1660   60.6300 O.2    57  LEU57      -0.2867
     17  CB        37.3060  179.9580   58.4220 C.3    57  LEU57       0.0270
     18  CG        35.8190  179.8830   58.1390 C.3    57  LEU57       0.0019
     19  CD1       35.1790  181.1750   58.5050 C.3    57  LEU57       0.0001
     20  CD2       35.7060  179.5530   56.6850 C.3    57  LEU57       0.0001
     21  N         32.6670  172.7360   50.8180 N.3    67  HIS67      -0.1241
     22  CA        31.2990  173.2970   50.7370 C.3    67  HIS67       0.1621
     23  C         30.9490  173.6490   49.3040 C.2    67  HIS67       0.2264
     24  O         29.7890  174.0740   49.0090 O.2    67  HIS67      -0.2867
     25  CB        31.2470  174.5220   51.7180 C.3    67  HIS67       0.0745
     26  CG        32.2910  175.4440   51.2090 C.ar   67  HIS67       0.0817
     27  ND1       33.6580  175.2380   51.4940 N.ar   67  HIS67      -0.2268
     28  CD2       32.1320  176.5240   50.4460 C.ar   67  HIS67       0.1154
     29  CE1       34.3330  176.2140   50.9000 C.ar   67  HIS67       0.1986
     30  NE2       33.4180  177.0070   50.2600 N.ar   67  HIS67      -0.2212
     31  N         25.9860  176.3690   51.0870 N.3    93  PHE93      -0.1241
     32  CA        26.5790  176.7690   52.3930 C.3    93  PHE93       0.1605
     33  C         25.7620  177.8610   53.0660 C.2    93  PHE93       0.2264
     34  O         25.7200  178.0080   54.2930 O.2    93  PHE93      -0.2867
     35  CB        28.0230  176.9650   52.1970 C.3    93  PHE93       0.0534
     36  CG        28.5290  178.1670   51.4180 C.ar   93  PHE93      -0.0203
     37  CD1       28.5140  179.4380   52.0060 C.ar   93  PHE93      -0.0042
     38  CD2       29.0030  178.0150   50.1240 C.ar   93  PHE93      -0.0042
     39  CE1       28.9900  180.5120   51.2650 C.ar   93  PHE93      -0.0003
     40  CE2       29.4750  179.1090   49.3840 C.ar   93  PHE93      -0.0003
     41  CZ        29.4800  180.3670   49.9310 C.ar   93  PHE93      -0.0000
     42  N         27.0490  180.2910   59.9940 N.3   116  LEU116     -0.1245
     43  CA        28.3470  181.0100   59.9810 C.3   116  LEU116      0.1561
     44  C         28.5680  181.9010   61.2140 C.2   116  LEU116      0.2260
     45  O         29.6520  181.8700   61.7370 O.2   116  LEU116     -0.2867
     46  CB        28.5250  181.7580   58.6580 C.3   116  LEU116      0.0270
     47  CG        29.8090  182.6140   58.5970 C.3   116  LEU116      0.0019
     48  CD1       31.0070  181.7100   58.4780 C.3   116  LEU116      0.0001
     49  CD2       29.7560  183.5890   57.4600 C.3   116  LEU116      0.0001
     50  N         30.0150  171.1380   58.4120 N.3   140  PHE140     -0.1227
     51  CA        30.6070  172.4390   58.0920 C.3   140  PHE140      0.1736
     52  C         29.5350  173.2350   57.3040 C.2   140  PHE140      0.2595
     53  O         29.2700  172.8880   56.1180 O.2   140  PHE140     -0.2718
     54  CB        31.7810  172.3290   57.2780 C.3   140  PHE140      0.0547
     55  CG        32.4630  173.5710   56.8740 C.ar  140  PHE140     -0.0202
     56  CD1       32.5880  174.6770   57.7410 C.ar  140  PHE140     -0.0042
     57  CD2       33.0100  173.6860   55.6130 C.ar  140  PHE140     -0.0042
     58  CE1       33.2220  175.7970   57.3480 C.ar  140  PHE140     -0.0003
     59  CE2       33.6640  174.8430   55.2110 C.ar  140  PHE140     -0.0003
     60  CZ        33.7690  175.8960   56.0770 C.ar  140  PHE140     -0.0000
     61  N         28.9160  174.1960   57.9050 N.am  141  LEU141     -0.1980
     62  CA        27.9470  175.0400   57.1830 C.3   141  LEU141      0.1596
     63  C         26.8220  174.3250   56.5090 C.2   141  LEU141      0.2287
     64  O         26.3720  174.7420   55.3940 O.2   141  LEU141     -0.2864
     65  CB        28.5010  176.0610   56.1650 C.3   141  LEU141      0.0297
     66  CG        29.6170  177.0130   56.6270 C.3   141  LEU141      0.0022
     67  CD1       30.4690  177.5650   55.4790 C.3   141  LEU141      0.0001
     68  CD2       28.9920  178.0380   57.5460 C.3   141  LEU141      0.0001
     69  N         30.2060  177.7740   45.1650 N.3   174  CYS174     -0.1235
     70  CA        30.9420  178.7460   45.8330 C.3   174  CYS174      0.1677
     71  C         31.7920  179.7370   45.0180 C.2   174  CYS174      0.2270
     72  O         31.3760  180.8520   44.8550 O.2   174  CYS174     -0.2867
     73  CB        31.9250  178.1840   46.8800 C.3   174  CYS174      0.0956
     74  SG        32.5530  179.4120   48.0940 S.3   174  CYS174     -0.0801
     75  N         35.4800  190.7680   49.8050 N.3   292  VAL292     -0.1245
     76  CA        35.0040  189.4180   49.5160 C.3   292  VAL292      0.1561
     77  C         35.8520  188.3900   50.3980 C.2   292  VAL292      0.2260
     78  O         35.2750  187.4210   50.8220 O.2   292  VAL292     -0.2867
     79  CB        35.1680  189.0910   48.0220 C.3   292  VAL292      0.0252
     80  CG1       34.7300  187.5890   47.7580 C.3   292  VAL292      0.0019
     81  CG2       34.2980  190.0600   47.2440 C.3   292  VAL292      0.0019
     82  N         37.9450  186.4210   53.3640 N.3   294  VAL294     -0.1245
     83  CA        37.6470  186.1710   54.8060 C.3   294  VAL294      0.1561
     84  C         38.8450  186.5340   55.6370 C.2   294  VAL294      0.2260
     85  O         39.9370  186.0990   55.3550 O.2   294  VAL294     -0.2867
     86  CB        37.3140  184.6690   54.9600 C.3   294  VAL294      0.0252
     87  CG1       37.1920  184.3100   56.4060 C.3   294  VAL294      0.0019
     88  CG2       35.9870  184.3690   54.3210 C.3   294  VAL294      0.0019
     89  N         28.4500  187.6230   51.5020 N.3   318  ILE318     -0.1231
     90  CA        28.6870  186.1750   51.4970 C.3   318  ILE318      0.1692
     91  C         28.1270  185.6420   50.1300 C.2   318  ILE318      0.2592
     92  O         26.9330  186.0060   49.8620 O.2   318  ILE318     -0.2718
     93  CB        27.8120  185.5110   52.6290 C.3   318  ILE318      0.0266
     94  CG1       28.1330  186.0860   54.0150 C.3   318  ILE318      0.0019
     95  CG2       27.9840  184.0190   52.6780 C.3   318  ILE318      0.0020
     96  CD1       29.6230  185.9540   54.3720 C.3   318  ILE318      0.0001
     97  N         28.8610  184.8190   49.3980 N.am  319  PHE319     -0.1976
     98  CA        28.3370  184.2180   48.1160 C.3   319  PHE319      0.1639
     99  C         27.7970  185.1670   47.0520 C.2   319  PHE319      0.2290
    100  O         26.6650  185.0230   46.5350 O.2   319  PHE319     -0.2864
    101  CB        27.2180  183.1660   48.4840 C.3   319  PHE319      0.0560
    102  CG        26.7280  182.1790   47.4510 C.ar  319  PHE319     -0.0200
    103  CD1       27.6490  181.3720   46.8190 C.ar  319  PHE319     -0.0042
    104  CD2       25.3890  182.0570   47.1190 C.ar  319  PHE319     -0.0042
    105  CE1       27.3100  180.4120   45.8520 C.ar  319  PHE319     -0.0003
    106  CE2       25.0090  181.1190   46.1530 C.ar  319  PHE319     -0.0003
    107  CZ        25.9760  180.3120   45.5300 C.ar  319  PHE319     -0.0000
@<TRIPOS>BOND
     1    72    71    2
     2    71    70    1
     3    69    70    1
     4   107   105   ar
     5   107   106   ar
     6    70    73    1
     7   105   103   ar
     8   106   104   ar
     9   100    99    2
    10   103   102   ar
    11    73    74    1
    12    99    98    1
    13   104   102   ar
    14    81    79    1
    15   102   101    1
    16    80    79    1
    17     1     2    1
    18     2     5    1
    19     2     3    1
    20    79    76    1
    21    98   101    1
    22    98    97    1
    23     5     6    1
    24    24    23    2
    25     3     4    1
    26    23    22    1
    27    40    41   ar
    28    40    38   ar
    29    97    91   am
    30    76    75    1
    31    76    77    1
    32    92    91    2
    33    41    39   ar
    34    38    36   ar
    35    91    90    1
    36    30    28   ar
    37    30    29   ar
    38    77    78    2
    39    28    26   ar
    40    22    21    1
    41    22    25    1
    42    29    27   ar
    43    31    32    1
    44    26    27   ar
    45    26    25    1
    46    39    37   ar
    47    36    37   ar
    48    36    35    1
    49    90    89    1
    50    90    93    1
    51     7     8    1
    52    12    11    1
    53    35    32    1
    54    32    33    1
    55    93    95    1
    56    93    94    1
    57    11     8    1
    58     8     9    1
    59    33    34    2
    60    82    83    1
    61     9    10    2
    62    94    96    1
    63    88    86    1
    64    83    86    1
    65    83    84    1
    66    86    87    1
    67    59    57   ar
    68    59    60   ar
    69    85    84    2
    70    64    63    2
    71    67    66    1
    72    57    55   ar
    73    60    58   ar
    74    53    52    2
    75    65    66    1
    76    65    62    1
    77    63    62    1
    78    66    68    1
    79    20    18    1
    80    55    54    1
    81    55    56   ar
    82    62    61    1
    83    54    51    1
    84    52    61   am
    85    52    51    1
    86    58    56   ar
    87    49    47    1
    88    51    50    1
    89    18    17    1
    90    18    19    1
    91    17    14    1
    92    48    47    1
    93    47    46    1
    94    46    43    1
    95    13    14    1
    96    14    15    1
    97    43    42    1
    98    43    44    1
    99    16    15    2
   100    44    45    2
