@<TRIPOS>MOLECULE
tmp/1ldiA00.pdb
 110 109 0 0 0
SMALL
GASTEIGER

@<TRIPOS>ATOM
      1  N         29.9790   69.6100  156.7190 N.3    93  PHE93      -0.1227
      2  CA        29.7410   70.6090  155.6940 C.3    93  PHE93       0.1736
      3  C         31.0030   71.4310  155.4530 C.2    93  PHE93       0.2595
      4  O         31.5390   71.4600  154.3400 O.2    93  PHE93      -0.2718
      5  CB        28.6130   71.5370  156.1260 C.3    93  PHE93       0.0547
      6  CG        28.3130   72.6230  155.1320 C.ar   93  PHE93      -0.0202
      7  CD1       27.5990   72.3440  153.9720 C.ar   93  PHE93      -0.0042
      8  CD2       28.7840   73.9190  155.3360 C.ar   93  PHE93      -0.0042
      9  CE1       27.3580   73.3400  153.0260 C.ar   93  PHE93      -0.0003
     10  CE2       28.5500   74.9270  154.3950 C.ar   93  PHE93      -0.0003
     11  CZ        27.8370   74.6370  153.2390 C.ar   93  PHE93      -0.0000
     12  N         31.4680   72.0960  156.5080 N.am   94  CYS94      -0.1970
     13  CA        32.6510   72.9430  156.4420 C.3    94  CYS94       0.1712
     14  C         33.9030   72.2010  156.0030 C.2    94  CYS94       0.2296
     15  O         34.6940   72.7250  155.2190 O.2    94  CYS94      -0.2864
     16  CB        32.8870   73.6040  157.7980 C.3    94  CYS94       0.0983
     17  SG        31.4720   74.5780  158.3680 S.3    94  CYS94      -0.0798
     18  N         33.9090   71.7140  152.3940 N.3    97  ALA97      -0.1245
     19  CA        34.2510   72.9730  151.7580 C.3    97  ALA97       0.1562
     20  C         35.7610   73.1910  151.8260 C.2    97  ALA97       0.2260
     21  O         36.3680   73.6970  150.8740 O.2    97  ALA97      -0.2867
     22  CB        33.5220   74.1180  152.4390 C.3    97  ALA97       0.0290
     23  N         37.5440   70.9760  149.3040 N.3   100  TYR100     -0.1241
     24  CA        37.3340   71.5230  147.9690 C.3   100  TYR100      0.1605
     25  C         38.2260   72.7540  147.8090 C.2   100  TYR100      0.2264
     26  O         38.8110   72.9840  146.7470 O.2   100  TYR100     -0.2867
     27  CB        35.8710   71.9290  147.7930 C.3   100  TYR100      0.0534
     28  CG        35.5610   72.5730  146.4630 C.ar  100  TYR100     -0.0201
     29  CD1       35.5890   71.8330  145.2810 C.ar  100  TYR100     -0.0009
     30  CD2       35.2280   73.9240  146.3870 C.ar  100  TYR100     -0.0009
     31  CE1       35.2860   72.4310  144.0440 C.ar  100  TYR100      0.0417
     32  CE2       34.9270   74.5340  145.1680 C.ar  100  TYR100      0.0417
     33  CZ        34.9570   73.7850  143.9980 C.ar  100  TYR100      0.1957
     34  OH        34.6740   74.3920  142.7940 O.3   100  TYR100     -0.2866
     35  N         40.6240   72.8000  144.8710 N.3   104  TYR104     -0.1241
     36  CA        39.9280   73.6510  143.8910 C.3   104  TYR104      0.1605
     37  C         40.3960   73.5070  142.4330 C.2   104  TYR104      0.2264
     38  O         39.6170   73.1590  141.5480 O.2   104  TYR104     -0.2867
     39  CB        40.0780   75.1150  144.3090 C.3   104  TYR104      0.0534
     40  CG        39.3200   76.1050  143.4610 C.ar  104  TYR104     -0.0201
     41  CD1       37.9710   76.3600  143.7000 C.ar  104  TYR104     -0.0009
     42  CD2       39.9530   76.8070  142.4350 C.ar  104  TYR104     -0.0009
     43  CE1       37.2610   77.2980  142.9430 C.ar  104  TYR104      0.0417
     44  CE2       39.2560   77.7450  141.6620 C.ar  104  TYR104      0.0417
     45  CZ        37.9040   77.9910  141.9240 C.ar  104  TYR104      0.1957
     46  OH        37.1990   78.9340  141.1930 O.3   104  TYR104     -0.2866
     47  N         38.6650   71.7730  138.6160 N.3   108  PHE108     -0.1241
     48  CA        38.4160   72.4550  137.3560 C.3   108  PHE108      0.1605
     49  C         39.2780   71.9740  136.2080 C.2   108  PHE108      0.2264
     50  O         38.7740   71.7620  135.1090 O.2   108  PHE108     -0.2867
     51  CB        38.5620   73.9650  137.5300 C.3   108  PHE108      0.0534
     52  CG        37.4820   74.5700  138.3830 C.ar  108  PHE108     -0.0203
     53  CD1       37.5430   74.4820  139.7790 C.ar  108  PHE108     -0.0042
     54  CD2       36.3650   75.1590  137.7960 C.ar  108  PHE108     -0.0042
     55  CE1       36.5110   74.9660  140.5740 C.ar  108  PHE108     -0.0003
     56  CE2       35.3230   75.6460  138.5830 C.ar  108  PHE108     -0.0003
     57  CZ        35.3970   75.5490  139.9740 C.ar  108  PHE108     -0.0000
     58  N         30.1330   70.1640  135.0540 N.3   118  ARG118     -0.1245
     59  CA        29.6850   70.0690  136.4330 C.3   118  ARG118      0.1563
     60  C         28.1930   70.3350  136.5340 C.2   118  ARG118      0.2260
     61  O         27.6890   71.3240  136.0110 O.2   118  ARG118     -0.2867
     62  CB        30.4360   71.0400  137.3430 C.3   118  ARG118      0.0307
     63  CG        30.1930   70.7240  138.8150 C.3   118  ARG118      0.0489
     64  CD        30.9450   71.6460  139.7470 C.3   118  ARG118      0.2205
     65  NE        32.3650   71.7240  139.4380 N.pl3 118  ARG118     -0.0865
     66  CZ        33.2220   72.4590  140.1360 C.cat 118  ARG118      0.5346
     67  NH1       32.7890   73.1600  141.1770 N.pl3 118  ARG118      0.1354
     68  NH2       34.5010   72.5200  139.7830 N.pl3 118  ARG118      0.1354
     69  N         27.0200   70.7480  150.3320 N.3   208  PHE208     -0.1241
     70  CA        28.1380   71.5270  149.8340 C.3   208  PHE208      0.1605
     71  C         28.2620   71.3710  148.3090 C.2   208  PHE208      0.2264
     72  O         28.2670   72.3570  147.5790 O.2   208  PHE208     -0.2867
     73  CB        29.4550   71.0900  150.4640 C.3   208  PHE208      0.0534
     74  CG        30.6380   71.7540  149.8360 C.ar  208  PHE208     -0.0203
     75  CD1       30.8560   73.1160  150.0200 C.ar  208  PHE208     -0.0042
     76  CD2       31.4570   71.0590  148.9490 C.ar  208  PHE208     -0.0042
     77  CE1       31.8660   73.7820  149.3240 C.ar  208  PHE208     -0.0003
     78  CE2       32.4700   71.7130  148.2480 C.ar  208  PHE208     -0.0003
     79  CZ        32.6710   73.0760  148.4340 C.ar  208  PHE208     -0.0000
     80  N         26.1930   70.5500  146.2260 N.3   210  TRP210     -0.1227
     81  CA        25.0190   71.1560  145.6180 C.3   210  TRP210      0.1737
     82  C         25.2730   72.6470  145.3590 C.2   210  TRP210      0.2595
     83  O         24.9770   73.1470  144.2730 O.2   210  TRP210     -0.2718
     84  CB        23.8300   70.9560  146.5550 C.3   210  TRP210      0.0564
     85  CG        22.5840   71.6680  146.1720 C.ar  210  TRP210      0.0003
     86  CD1       21.7940   71.4240  145.0860 C.ar  210  TRP210      0.0946
     87  CD2       21.9410   72.7090  146.9150 C.ar  210  TRP210      0.0152
     88  NE1       20.6890   72.2460  145.1130 N.ar  210  TRP210     -0.2442
     89  CE2       20.7540   73.0420  146.2270 C.ar  210  TRP210      0.0810
     90  CE3       22.2510   73.3900  148.1020 C.ar  210  TRP210      0.0012
     91  CZ2       19.8760   74.0300  146.6840 C.ar  210  TRP210      0.0191
     92  CZ3       21.3740   74.3770  148.5560 C.ar  210  TRP210      0.0001
     93  CH2       20.2010   74.6820  147.8490 C.ar  210  TRP210      0.0015
     94  N         25.8210   73.3460  146.3540 N.am  211  LEU211     -0.1966
     95  CA        26.1420   74.7710  146.2400 C.3   211  LEU211      0.1728
     96  C         27.2840   75.0480  145.2670 C.2   211  LEU211      0.2616
     97  O         27.2920   76.0700  144.5850 O.2   211  LEU211     -0.2715
     98  CB        26.5790   75.3430  147.5910 C.3   211  LEU211      0.0311
     99  CG        25.6150   75.3550  148.7730 C.3   211  LEU211      0.0022
    100  CD1       26.3520   75.8510  150.0150 C.3   211  LEU211      0.0001
    101  CD2       24.4170   76.2430  148.4610 C.3   211  LEU211      0.0001
    102  N         28.2550   74.1400  145.2280 N.am  212  ALA212     -0.1963
    103  CA        29.4480   74.2930  144.4020 C.3   212  ALA212      0.1728
    104  C         29.3000   74.0480  142.8930 C.2   212  ALA212      0.2616
    105  O         30.2950   74.0020  142.1680 O.2   212  ALA212     -0.2715
    106  CB        30.5700   73.4170  144.9730 C.3   212  ALA212      0.0334
    107  N         28.0750   73.8860  142.4140 N.am  213  GLY213     -0.1955
    108  CA        27.9050   73.6900  140.9930 C.3   213  GLY213      0.1869
    109  C         27.4000   72.3410  140.5380 C.2   213  GLY213      0.2309
    110  O         27.1390   72.1580  139.3450 O.2   213  GLY213     -0.2863
@<TRIPOS>BOND
     1    58    59    1
     2    50    49    2
     3    61    60    2
     4    49    48    1
     5    59    60    1
     6    59    62    1
     7    62    63    1
     8    48    51    1
     9    48    47    1
    10    51    52    1
    11    54    52   ar
    12    54    56   ar
    13    52    53   ar
    14    56    57   ar
    15    63    64    1
    16   110   109    2
    17    65    64    1
    18    65    66    2
    19    53    55   ar
    20    68    66    1
    21    57    55   ar
    22    66    67    1
    23   109   108    1
    24   108   107    1
    25    46    45    1
    26    38    37    2
    27    44    45   ar
    28    44    42   ar
    29    45    43   ar
    30   105   104    2
    31   107   104   am
    32    37    36    1
    33    42    40   ar
    34    34    33    1
    35   104   103    1
    36    43    41   ar
    37    40    41   ar
    38    40    39    1
    39    36    39    1
    40    36    35    1
    41    33    31   ar
    42    33    32   ar
    43    31    29   ar
    44    83    82    2
    45   103   106    1
    46   103   102    1
    47    97    96    2
    48    86    88   ar
    49    86    85   ar
    50    88    89   ar
    51    32    30   ar
    52   102    96   am
    53    96    95    1
    54    29    28   ar
    55    82    81    1
    56    82    94   am
    57    81    80    1
    58    81    84    1
    59    85    84    1
    60    85    87   ar
    61    89    91   ar
    62    89    87   ar
    63    95    94    1
    64    95    98    1
    65    30    28   ar
    66    28    27    1
    67    91    93   ar
    68    26    25    2
    69    87    90   ar
    70    72    71    2
    71    98    99    1
    72    27    24    1
    73    25    24    1
    74    93    92   ar
    75    24    23    1
    76    90    92   ar
    77    78    79   ar
    78    78    76   ar
    79    71    70    1
    80    79    77   ar
    81   101    99    1
    82    99   100    1
    83    76    74   ar
    84    77    75   ar
    85    70    69    1
    86    70    73    1
    87    74    75   ar
    88    74    73    1
    89    21    20    2
    90    19    20    1
    91    19    18    1
    92    19    22    1
    93     9    11   ar
    94     9     7   ar
    95    11    10   ar
    96     7     6   ar
    97     4     3    2
    98    10     8   ar
    99     6     8   ar
   100     6     5    1
   101    15    14    2
   102     3     2    1
   103     3    12   am
   104     2     5    1
   105     2     1    1
   106    14    13    1
   107    13    12    1
   108    13    16    1
   109    16    17    1
