@<TRIPOS>MOLECULE
tmp/1ldiA01.pdb
 111 109 0 0 0
SMALL
GASTEIGER

@<TRIPOS>ATOM
      1  N         23.6070   66.5780  166.5610 N.3    85  ILE85      -0.1245
      2  CA        23.3450   66.3460  165.1400 C.3    85  ILE85       0.1561
      3  C         23.6070   67.5660  164.2580 C.2    85  ILE85       0.2260
      4  O         24.0600   67.4200  163.1230 O.2    85  ILE85      -0.2867
      5  CB        21.8900   65.8590  164.9210 C.3    85  ILE85       0.0252
      6  CG1       21.6920   64.5090  165.6150 C.3    85  ILE85       0.0019
      7  CG2       21.5890   65.7340  163.4340 C.3    85  ILE85       0.0019
      8  CD1       20.3150   63.9290  165.4310 C.3    85  ILE85       0.0001
      9  N         26.6020   67.6140  161.3510 N.3    89  VAL89      -0.1245
     10  CA        26.3090   68.0060  159.9750 C.3    89  VAL89       0.1561
     11  C         27.0400   69.2930  159.5700 C.2    89  VAL89       0.2260
     12  O         27.4470   69.4390  158.4180 O.2    89  VAL89      -0.2867
     13  CB        24.7920   68.2180  159.7590 C.3    89  VAL89       0.0252
     14  CG1       24.5470   68.6940  158.3590 C.3    89  VAL89       0.0019
     15  CG2       24.0320   66.9230  159.9880 C.3    89  VAL89       0.0019
     16  N         24.9050   63.9550  154.0920 N.3   203  PHE203     -0.1241
     17  CA        24.0670   65.1150  153.8270 C.3   203  PHE203      0.1605
     18  C         24.8420   66.4250  153.7870 C.2   203  PHE203      0.2264
     19  O         24.6830   67.2230  152.8570 O.2   203  PHE203     -0.2867
     20  CB        22.9610   65.2230  154.8660 C.3   203  PHE203      0.0534
     21  CG        21.9530   66.2890  154.5530 C.ar  203  PHE203     -0.0203
     22  CD1       21.0360   66.1100  153.5230 C.ar  203  PHE203     -0.0042
     23  CD2       21.9450   67.4920  155.2640 C.ar  203  PHE203     -0.0042
     24  CE1       20.1210   67.1110  153.1980 C.ar  203  PHE203     -0.0003
     25  CE2       21.0340   68.5030  154.9490 C.ar  203  PHE203     -0.0003
     26  CZ        20.1200   68.3100  153.9130 C.ar  203  PHE203     -0.0000
     27  N         26.1930   70.5500  146.2260 N.3   210  TRP210     -0.1241
     28  CA        25.0190   71.1560  145.6180 C.3   210  TRP210      0.1605
     29  C         25.2730   72.6470  145.3590 C.2   210  TRP210      0.2264
     30  O         24.9770   73.1470  144.2730 O.2   210  TRP210     -0.2867
     31  CB        23.8300   70.9560  146.5550 C.3   210  TRP210      0.0550
     32  CG        22.5840   71.6680  146.1720 C.ar  210  TRP210      0.0003
     33  CD1       21.7940   71.4240  145.0860 C.ar  210  TRP210      0.0946
     34  CD2       21.9410   72.7090  146.9150 C.ar  210  TRP210      0.0152
     35  NE1       20.6890   72.2460  145.1130 N.ar  210  TRP210     -0.2442
     36  CE2       20.7540   73.0420  146.2270 C.ar  210  TRP210      0.0810
     37  CE3       22.2510   73.3900  148.1020 C.ar  210  TRP210      0.0012
     38  CZ2       19.8760   74.0300  146.6840 C.ar  210  TRP210      0.0191
     39  CZ3       21.3740   74.3770  148.5560 C.ar  210  TRP210      0.0001
     40  CH2       20.2010   74.6820  147.8490 C.ar  210  TRP210      0.0015
     41  N         21.2400   69.8160  141.4330 N.3   216  ASN216     -0.1240
     42  CA        20.3210   68.7370  141.8020 C.3   216  ASN216      0.1653
     43  C         20.8940   67.3150  141.8140 C.2   216  ASN216      0.2266
     44  O         20.5190   66.5220  142.6810 O.2   216  ASN216     -0.2867
     45  CB        19.0780   68.7830  140.8990 C.3   216  ASN216      0.1155
     46  CG        17.8510   68.1630  141.5500 C.2   216  ASN216      0.2627
     47  OD1       17.0250   67.5400  140.8790 O.2   216  ASN216     -0.2716
     48  ND2       17.7130   68.3470  142.8580 N.am  216  ASN216     -0.0877
     49  N         22.0250   65.5600  144.9120 N.3   219  PHE219     -0.1227
     50  CA        21.0130   64.9270  145.7610 C.3   219  PHE219      0.1736
     51  C         20.3980   63.6850  145.1350 C.2   219  PHE219      0.2596
     52  O         20.1780   62.6800  145.8100 O.2   219  PHE219     -0.2718
     53  CB        19.8780   65.9040  146.0560 C.3   219  PHE219      0.0547
     54  CG        20.2780   67.0570  146.9190 C.ar  219  PHE219     -0.0202
     55  CD1       19.9620   68.3580  146.5470 C.ar  219  PHE219     -0.0042
     56  CD2       20.9660   66.8470  148.1100 C.ar  219  PHE219     -0.0042
     57  CE1       20.3290   69.4340  147.3480 C.ar  219  PHE219     -0.0003
     58  CE2       21.3370   67.9190  148.9180 C.ar  219  PHE219     -0.0003
     59  CZ        21.0180   69.2160  148.5340 C.ar  219  PHE219     -0.0000
     60  N         20.1120   63.7700  143.8410 N.am  220  THR220     -0.1953
     61  CA        19.4810   62.6790  143.1150 C.3   220  THR220      0.1897
     62  C         20.4330   61.5910  142.6330 C.2   220  THR220      0.2313
     63  O         20.0490   60.4340  142.4900 O.2   220  THR220     -0.2863
     64  CB        18.7350   63.2240  141.8890 C.3   220  THR220      0.1794
     65  OG1       19.6820   63.7580  140.9560 O.3   220  THR220     -0.2208
     66  CG2       17.7860   64.3300  142.2970 C.3   220  THR220      0.0378
     67  N         15.0970   60.4860  144.7550 N.3   226  PRO226     -0.2116
     68  CA        16.2200   61.2580  145.3070 C.3   226  PRO226      0.1372
     69  C         17.0680   60.3920  146.2320 C.2   226  PRO226      0.2244
     70  O         16.6310   60.0160  147.3210 O.2   226  PRO226     -0.2868
     71  CB        15.5220   62.4030  146.0370 C.3   226  PRO226      0.0268
     72  CG        14.2030   61.7880  146.4510 C.3   226  PRO226      0.0207
     73  CD        13.8080   61.0380  145.2060 C.3   226  PRO226      0.0892
     74  N         19.6340   60.9310  148.2650 N.3   228  PHE228     -0.1227
     75  CA        20.0500   61.3950  149.5820 C.3   228  PHE228      0.1736
     76  C         19.2240   60.8190  150.7420 C.2   228  PHE228      0.2595
     77  O         19.6540   60.8410  151.8930 O.2   228  PHE228     -0.2718
     78  CB        20.0450   62.9280  149.6160 C.3   228  PHE228      0.0547
     79  CG        18.7080   63.5250  149.8970 C.ar  228  PHE228     -0.0202
     80  CD1       18.2830   63.7290  151.2090 C.ar  228  PHE228     -0.0042
     81  CD2       17.8590   63.8720  148.8570 C.ar  228  PHE228     -0.0042
     82  CE1       17.0250   64.2710  151.4810 C.ar  228  PHE228     -0.0003
     83  CE2       16.5970   64.4150  149.1180 C.ar  228  PHE228     -0.0003
     84  CZ        16.1840   64.6130  150.4350 C.ar  228  PHE228     -0.0000
     85  N         18.0430   60.2950  150.4400 N.am  229  LEU229     -0.1980
     86  CA        17.1900   59.7180  151.4720 C.3   229  LEU229      0.1596
     87  C         17.7750   58.4390  152.0640 C.2   229  LEU229      0.2287
     88  O         17.5540   58.1460  153.2390 O.2   229  LEU229     -0.2864
     89  CB        15.8060   59.4250  150.9010 C.3   229  LEU229      0.0297
     90  CG        15.0070   60.6710  150.5280 C.3   229  LEU229      0.0022
     91  CD1       13.8620   60.2810  149.6230 C.3   229  LEU229      0.0001
     92  CD2       14.5120   61.3630  151.7980 C.3   229  LEU229      0.0001
     93  N         20.5070   59.0290  154.5090 N.3   232  LEU232     -0.1231
     94  CA        19.8670   59.8390  155.5350 C.3   232  LEU232      0.1693
     95  C         19.1000   58.9820  156.5380 C.2   232  LEU232      0.2592
     96  O         19.3400   59.0670  157.7430 O.2   232  LEU232     -0.2718
     97  CB        18.9330   60.8640  154.8690 C.3   232  LEU232      0.0284
     98  CG        18.5140   62.1220  155.6480 C.3   232  LEU232      0.0019
     99  CD1       19.7260   62.7440  156.3240 C.3   232  LEU232      0.0001
    100  CD2       17.8730   63.1310  154.7030 C.3   232  LEU232      0.0001
    101  N         18.2030   58.1350  156.0450 N.am  233  PHE233     -0.1976
    102  CA        17.4010   57.2930  156.9250 C.3   233  PHE233      0.1639
    103  C         17.8890   55.8560  157.0840 C.2   233  PHE233      0.2290
    104  O         17.7000   55.2540  158.1460 O.2   233  PHE233     -0.2864
    105  CB        15.9390   57.3160  156.4640 C.3   233  PHE233      0.0560
    106  CG        15.3280   58.6910  156.5010 C.ar  233  PHE233     -0.0200
    107  CD1       15.0620   59.3860  155.3260 C.ar  233  PHE233     -0.0042
    108  CD2       15.0710   59.3160  157.7200 C.ar  233  PHE233     -0.0042
    109  CE1       14.5510   60.6870  155.3650 C.ar  233  PHE233     -0.0003
    110  CE2       14.5620   60.6130  157.7700 C.ar  233  PHE233     -0.0003
    111  CZ        14.3020   61.2980  156.5940 C.ar  233  PHE233     -0.0000
@<TRIPOS>BOND
     1    47    46    2
     2    45    46    1
     3    45    42    1
     4    65    64    1
     5    41    42    1
     6    46    48   am
     7    42    43    1
     8    43    44    2
     9    64    66    1
    10    64    61    1
    11    63    62    2
    12    62    61    1
    13    61    60    1
    14    60    51   am
    15    30    29    2
    16    67    73    1
    17    67    68    1
    18    49    50    1
    19    33    35   ar
    20    33    32   ar
    21    35    36   ar
    22    51    50    1
    23    51    52    2
    24    73    72    1
    25    68    71    1
    26    68    69    1
    27    29    28    1
    28    28    27    1
    29    28    31    1
    30    50    53    1
    31    71    72    1
    32    53    54    1
    33    32    31    1
    34    32    34   ar
    35    36    38   ar
    36    36    34   ar
    37    69    70    2
    38    55    54   ar
    39    55    57   ar
    40    38    40   ar
    41    34    37   ar
    42    54    56   ar
    43    57    59   ar
    44    40    39   ar
    45    37    39   ar
    46    56    58   ar
    47    74    75    1
    48    59    58   ar
    49    81    83   ar
    50    81    79   ar
    51    83    84   ar
    52    75    78    1
    53    75    76    1
    54    78    79    1
    55    91    90    1
    56    79    80   ar
    57    84    82   ar
    58    85    76   am
    59    85    86    1
    60    90    89    1
    61    90    92    1
    62    76    77    2
    63    89    86    1
    64    80    82   ar
    65    86    87    1
    66    87    88    2
    67    19    18    2
    68    24    22   ar
    69    24    26   ar
    70    22    21   ar
    71    18    17    1
    72    17    16    1
    73    17    20    1
    74    26    25   ar
    75    93    94    1
    76    21    20    1
    77    21    23   ar
    78   100    98    1
    79    97    94    1
    80    97    98    1
    81    25    23   ar
    82   107   109   ar
    83   107   106   ar
    84   109   111   ar
    85    94    95    1
    86    98    99    1
    87   101    95   am
    88   101   102    1
    89   105   106    1
    90   105   102    1
    91   106   108   ar
    92    95    96    2
    93   111   110   ar
    94   102   103    1
    95   103   104    2
    96   108   110   ar
    97    14    13    1
    98    12    11    2
    99    11    10    1
   100    13    10    1
   101    13    15    1
   102    10     9    1
   103     4     3    2
   104     7     5    1
   105     3     2    1
   106     5     2    1
   107     5     6    1
   108     2     1    1
   109     8     6    1
