@<TRIPOS>MOLECULE
tmp/1ldnG00.pdb
 89 87 0 0 0
SMALL
GASTEIGER

@<TRIPOS>ATOM
      1  N         69.4880   48.9160   48.8260 N.3   157  ARG157     -0.1245
      2  CA        70.4500   49.7410   49.5960 C.3   157  ARG157      0.1563
      3  C         70.2210   49.6420   51.0830 C.2   157  ARG157      0.2260
      4  O         71.1930   49.4160   51.8160 O.2   157  ARG157     -0.2867
      5  CB        70.4140   51.1920   49.1010 C.3   157  ARG157      0.0307
      6  CG        70.5440   51.1000   47.5610 C.3   157  ARG157      0.0489
      7  CD        71.5580   52.1020   47.1240 C.3   157  ARG157      0.2205
      8  NE        70.9080   53.3770   46.9000 N.pl3 157  ARG157     -0.0865
      9  CZ        71.4450   54.5610   47.1830 C.cat 157  ARG157      0.5346
     10  NH1       72.6570   54.5890   47.7310 N.pl3 157  ARG157      0.1354
     11  NH2       70.6970   55.6260   46.9000 N.pl3 157  ARG157      0.1354
     12  N         72.1140   55.3250   52.1710 N.3   169  GLN169     -0.1231
     13  CA        72.5250   56.3990   51.2610 C.3   169  GLN169      0.1698
     14  C         73.9850   56.1420   50.8780 C.2   169  GLN169      0.2592
     15  O         74.2740   56.6450   49.7780 O.2   169  GLN169     -0.2718
     16  CB        72.3120   57.8100   51.8120 C.3   169  GLN169      0.0381
     17  CG        70.8890   58.2620   51.9600 C.3   169  GLN169      0.0905
     18  CD        70.2340   58.2840   53.3070 C.2   169  GLN169      0.2608
     19  OE1       70.5840   57.5710   54.2390 O.2   169  GLN169     -0.2717
     20  NE2       69.2180   59.1440   53.4720 N.am  169  GLN169     -0.0878
     21  N         74.8050   55.4450   51.6450 N.am  170  ASN170     -0.1960
     22  CA        76.2040   55.1960   51.2700 C.3   170  ASN170      0.1819
     23  C         76.4920   53.7590   50.7690 C.2   170  ASN170      0.2621
     24  O         77.6790   53.3180   50.8350 O.2   170  ASN170     -0.2715
     25  CB        77.2110   55.4500   52.3690 C.3   170  ASN170      0.1195
     26  CG        77.3440   56.7680   53.0450 C.2   170  ASN170      0.2630
     27  OD1       77.5330   56.7750   54.2840 O.2   170  ASN170     -0.2716
     28  ND2       77.2770   57.8420   52.2750 N.am  170  ASN170     -0.0877
     29  N         75.4360   53.1120   50.3220 N.am  171  VAL171     -0.1963
     30  CA        75.5410   51.7360   49.7480 C.3   171  VAL171      0.1727
     31  C         75.3520   51.9560   48.2400 C.2   171  VAL171      0.2616
     32  O         74.4070   52.6310   47.7700 O.2   171  VAL171     -0.2715
     33  CB        74.5930   50.7910   50.4830 C.3   171  VAL171      0.0290
     34  CG1       74.5510   49.3780   49.9020 C.3   171  VAL171      0.0023
     35  CG2       74.8920   50.7370   51.9800 C.3   171  VAL171      0.0023
     36  N         76.2850   51.4650   47.4560 N.am  172  HIS172     -0.1959
     37  CA        76.2820   51.6120   45.9820 C.3   172  HIS172      0.1787
     38  C         76.1270   50.2560   45.3030 C.2   172  HIS172      0.2620
     39  O         77.0910   49.4930   45.1230 O.2   172  HIS172     -0.2715
     40  CB        77.5740   52.3090   45.4930 C.3   172  HIS172      0.0785
     41  CG        77.7480   53.6400   46.1810 C.ar  172  HIS172      0.0821
     42  ND1       76.6950   54.5050   46.4020 N.ar  172  HIS172     -0.2267
     43  CD2       78.8580   54.2420   46.6740 C.ar  172  HIS172      0.1154
     44  CE1       77.1470   55.5850   47.0100 C.ar  172  HIS172      0.1986
     45  NE2       78.4500   55.4430   47.1900 N.ar  172  HIS172     -0.2212
     46  N         74.8790   50.0180   44.9640 N.am  173  ALA173     -0.1963
     47  CA        74.4120   48.7870   44.3220 C.3   173  ALA173      0.1728
     48  C         73.0930   49.0240   43.5860 C.2   173  ALA173      0.2616
     49  O         72.2380   49.8650   43.9550 O.2   173  ALA173     -0.2715
     50  CB        74.3190   47.7510   45.4410 C.3   173  ALA173      0.0334
     51  N         72.8910   48.2600   42.5260 N.am  174  TYR174     -0.1974
     52  CA        71.7110   48.3260   41.6720 C.3   174  TYR174      0.1639
     53  C         70.9290   47.0320   41.5070 C.2   174  TYR174      0.2290
     54  O         71.4990   45.9440   41.6360 O.2   174  TYR174     -0.2864
     55  CB        72.1350   48.6270   40.2140 C.3   174  TYR174      0.0560
     56  CG        72.6740   49.9660   39.8420 C.ar  174  TYR174     -0.0198
     57  CD1       72.2290   51.1290   40.4650 C.ar  174  TYR174     -0.0009
     58  CD2       73.6130   50.0990   38.8120 C.ar  174  TYR174     -0.0009
     59  CE1       72.7160   52.3810   40.0960 C.ar  174  TYR174      0.0417
     60  CE2       74.1120   51.3420   38.4160 C.ar  174  TYR174      0.0417
     61  CZ        73.6490   52.4750   39.0750 C.ar  174  TYR174      0.1957
     62  OH        74.1080   53.7170   38.7590 O.3   174  TYR174     -0.2866
     63  N         80.3830   52.8810   50.1170 N.3   193  GLY193     -0.1210
     64  CA        81.4660   53.9300   50.0510 C.3   193  GLY193      0.1956
     65  C         82.0360   53.7660   48.6160 C.2   193  GLY193      0.2611
     66  O         81.3760   53.9740   47.5720 O.2   193  GLY193     -0.2717
     67  N         83.2930   53.3730   48.5530 N.am  194  VAL194     -0.1979
     68  CA        84.0180   53.1280   47.3030 C.3   194  VAL194      0.1595
     69  C         84.6140   51.7060   47.3440 C.2   194  VAL194      0.2287
     70  O         85.2250   51.3310   46.3360 O.2   194  VAL194     -0.2864
     71  CB        85.1620   54.1160   47.0350 C.3   194  VAL194      0.0276
     72  CG1       84.6870   55.4750   46.5770 C.3   194  VAL194      0.0022
     73  CG2       86.0680   54.1910   48.2640 C.3   194  VAL194      0.0022
     74  N         71.5920   60.1020   38.2710 N.3   255  ILE255     -0.1231
     75  CA        71.5430   58.7620   37.6380 C.3   255  ILE255      0.1692
     76  C         70.6490   57.8370   38.4550 C.2   255  ILE255      0.2591
     77  O         71.0610   57.5200   39.5810 O.2   255  ILE255     -0.2718
     78  CB        72.9880   58.2280   37.4130 C.3   255  ILE255      0.0266
     79  CG1       74.0390   59.3650   37.4050 C.3   255  ILE255      0.0019
     80  CG2       73.1130   57.4380   36.0910 C.3   255  ILE255      0.0020
     81  CD1       75.4450   58.7420   37.0840 C.3   255  ILE255      0.0001
     82  N         69.5210   57.4060   37.9490 N.am  256  LEU256     -0.1980
     83  CA        68.5770   56.4690   38.5930 C.3   256  LEU256      0.1596
     84  C         68.4300   55.2220   37.6930 C.2   256  LEU256      0.2287
     85  O         68.8820   55.2000   36.5260 O.2   256  LEU256     -0.2864
     86  CB        67.3040   57.2250   38.9830 C.3   256  LEU256      0.0297
     87  CG        67.4740   58.4290   39.9070 C.3   256  LEU256      0.0022
     88  CD1       66.6310   59.6260   39.4680 C.3   256  LEU256      0.0001
     89  CD2       67.0650   58.0140   41.3180 C.3   256  LEU256      0.0001
@<TRIPOS>BOND
     1    80    78    1
     2    85    84    2
     3    81    79    1
     4    79    78    1
     5    78    75    1
     6    75    74    1
     7    75    76    1
     8    84    83    1
     9    82    76   am
    10    82    83    1
    11    60    58   ar
    12    60    61   ar
    13    76    77    2
    14    83    86    1
    15    62    61    1
    16    58    56   ar
    17    86    87    1
    18    61    59   ar
    19    88    87    1
    20    56    55    1
    21    56    57   ar
    22    87    89    1
    23    59    57   ar
    24    55    52    1
    25    53    54    2
    26    53    52    1
    27    52    51    1
    28    51    48   am
    29    48    49    2
    30    48    47    1
    31    47    46    1
    32    47    50    1
    33    46    38   am
    34    39    38    2
    35    38    37    1
    36    40    37    1
    37    40    41    1
    38    37    36    1
    39    41    42   ar
    40    41    43   ar
    41    70    69    2
    42    42    44   ar
    43    72    71    1
    44    43    45   ar
    45     8     7    1
    46     8     9    2
    47    11     9    1
    48    44    45   ar
    49    71    68    1
    50    71    73    1
    51     7     6    1
    52     9    10    1
    53    68    69    1
    54    68    67    1
    55    36    31   am
    56     6     5    1
    57    66    65    2
    58    32    31    2
    59    31    30    1
    60    67    65   am
    61    65    64    1
    62     1     2    1
    63     5     2    1
    64     2     3    1
    65    30    29    1
    66    30    33    1
    67    15    14    2
    68    34    33    1
    69    64    63    1
    70    29    23   am
    71    33    35    1
    72    23    24    2
    73    23    22    1
    74    14    13    1
    75    14    21   am
    76     3     4    2
    77    13    16    1
    78    13    12    1
    79    22    21    1
    80    22    25    1
    81    16    17    1
    82    17    18    1
    83    28    26   am
    84    25    26    1
    85    26    27    2
    86    18    20   am
    87    18    19    2
