@<TRIPOS>MOLECULE
tmp/1ldoA01.pdb
 152 145 0 0 0
SMALL
GASTEIGER

@<TRIPOS>ATOM
      1  N          2.9140   19.8410   18.7230 N.3    10  ASN10      -0.1240
      2  CA         3.5850   21.0140   18.1900 C.3    10  ASN10       0.1653
      3  C          4.9140   21.3150   18.8550 C.2    10  ASN10       0.2266
      4  O          5.3190   20.6190   19.7820 O.2    10  ASN10      -0.2867
      5  CB         2.6530   22.2710   18.1720 C.3    10  ASN10       0.1155
      6  CG         2.4080   22.8910   19.5570 C.2    10  ASN10       0.2627
      7  OD1        3.1400   22.6460   20.5170 O.2    10  ASN10      -0.2716
      8  ND2        1.3630   23.7190   19.6480 N.am   10  ASN10      -0.0877
      9  N          5.8220   23.4760   20.9280 N.3    12  LEU12      -0.1245
     10  CA         5.7680   23.8140   22.3500 C.3    12  LEU12       0.1561
     11  C          5.4940   22.5670   23.1620 C.2    12  LEU12       0.2260
     12  O          5.6290   22.5720   24.3850 O.2    12  LEU12      -0.2867
     13  CB         4.6510   24.8220   22.6380 C.3    12  LEU12       0.0270
     14  CG         4.7830   26.2730   22.1730 C.3    12  LEU12       0.0019
     15  CD1        3.5540   27.0470   22.6620 C.3    12  LEU12       0.0001
     16  CD2        6.0540   26.8840   22.7200 C.3    12  LEU12       0.0001
     17  N          2.4460   20.9060   22.7760 N.3    14  SER14      -0.1217
     18  CA         0.9940   20.7410   22.8760 C.3    14  SER14       0.1889
     19  C          0.4910   19.6540   21.9340 C.2    14  SER14       0.2288
     20  O          1.0030   19.4890   20.8360 O.2    14  SER14      -0.2866
     21  CB         0.2600   22.0520   22.5270 C.3    14  SER14       0.2089
     22  OG         0.6110   23.1030   23.4000 O.3    14  SER14      -0.2183
     23  N         -7.7990   19.9890   22.2680 N.3    31  TYR31      -0.1241
     24  CA        -6.4960   20.6010   22.3710 C.3    31  TYR31       0.1605
     25  C         -5.9730   20.5740   23.7920 C.2    31  TYR31       0.2264
     26  O         -6.6360   21.0650   24.6960 O.2    31  TYR31      -0.2867
     27  CB        -6.5950   22.0410   21.9140 C.3    31  TYR31       0.0534
     28  CG        -5.2910   22.6340   21.4700 C.ar   31  TYR31      -0.0201
     29  CD1       -4.3110   23.0460   22.4050 C.ar   31  TYR31      -0.0009
     30  CD2       -5.0230   22.7710   20.1110 C.ar   31  TYR31      -0.0009
     31  CE1       -3.0960   23.5840   21.9680 C.ar   31  TYR31       0.0417
     32  CE2       -3.8250   23.2910   19.6600 C.ar   31  TYR31       0.0417
     33  CZ        -2.8640   23.6960   20.5760 C.ar   31  TYR31       0.1957
     34  OH        -1.6840   24.1770   20.0700 O.3    31  TYR31      -0.2866
     35  N         -2.9690   22.0510   25.6230 N.3    33  THR33      -0.1218
     36  CA        -1.8140   22.9190   25.5720 C.3    33  THR33       0.1862
     37  C         -0.7830   22.5170   26.6510 C.2    33  THR33       0.2287
     38  O         -1.1710   22.0890   27.7420 O.2    33  THR33      -0.2866
     39  CB        -2.2410   24.3640   25.7660 C.3    33  THR33       0.1770
     40  OG1       -1.0890   25.2040   25.6520 O.3    33  THR33      -0.2211
     41  CG2       -2.8690   24.5570   27.1460 C.3    33  THR33       0.0375
     42  N          1.5390   24.6780   27.6310 N.3    35  VAL35      -0.1231
     43  CA         1.8230   25.9530   28.2590 C.3    35  VAL35       0.1692
     44  C          0.5610   26.8250   28.4430 C.2    35  VAL35       0.2593
     45  O         -0.4420   26.6510   27.7430 O.2    35  VAL35      -0.2718
     46  CB         2.8590   26.7450   27.3940 C.3    35  VAL35       0.0266
     47  CG1        4.1820   25.9930   27.3480 C.3    35  VAL35       0.0020
     48  CG2        2.3250   26.9460   25.9630 C.3    35  VAL35       0.0020
     49  N          0.6300   27.7490   29.3960 N.am   36  THR36      -0.1939
     50  CA        -0.4450   28.6940   29.6550 C.3    36  THR36       0.2028
     51  C          0.1160   30.0240   30.1460 C.2    36  THR36       0.2642
     52  O          1.1080   30.0600   30.8760 O.2    36  THR36      -0.2714
     53  CB        -1.4650   28.2070   30.7250 C.3    36  THR36       0.1808
     54  OG1       -2.4270   29.2440   30.9390 O.3    36  THR36      -0.2208
     55  CG2       -0.7950   27.9290   32.0580 C.3    36  THR36       0.0379
     56  N         -0.5310   31.1130   29.7480 N.am   37  ALA37      -0.1963
     57  CA        -0.1210   32.4510   30.1840 C.3    37  ALA37       0.1728
     58  C         -0.7460   32.7040   31.5520 C.2    37  ALA37       0.2616
     59  O         -0.3830   33.6580   32.2560 O.2    37  ALA37      -0.2715
     60  CB        -0.6110   33.5010   29.1910 C.3    37  ALA37       0.0334
     61  N         -1.6920   31.8430   31.9220 N.am   38  THR38      -0.1951
     62  CA        -2.3670   31.9840   33.2020 C.3    38  THR38       0.1897
     63  C         -1.6010   31.2360   34.2790 C.2    38  THR38       0.2313
     64  O         -0.5060   30.7030   34.0390 O.2    38  THR38      -0.2863
     65  CB        -3.8290   31.4320   33.1630 C.3    38  THR38       0.1794
     66  OG1       -3.8130   29.9980   33.0570 O.3    38  THR38      -0.2208
     67  CG2       -4.5930   32.0300   31.9830 C.3    38  THR38       0.0378
     68  N        -11.0830   27.6740   25.2430 N.3    68  TRP68      -0.1241
     69  CA       -10.4320   27.2300   26.4880 C.3    68  TRP68       0.1605
     70  C        -11.3750   27.0050   27.6880 C.2    68  TRP68       0.2264
     71  O        -12.2020   27.8600   28.0360 O.2    68  TRP68      -0.2867
     72  CB        -9.3030   28.1970   26.8860 C.3    68  TRP68       0.0550
     73  CG        -8.2720   28.4520   25.7840 C.ar   68  TRP68       0.0003
     74  CD1       -8.0880   29.6140   25.0840 C.ar   68  TRP68       0.0946
     75  CD2       -7.3310   27.5110   25.2470 C.ar   68  TRP68       0.0152
     76  NE1       -7.0940   29.4560   24.1490 N.ar   68  TRP68      -0.2442
     77  CE2       -6.6130   28.1770   24.2220 C.ar   68  TRP68       0.0810
     78  CE3       -7.0260   26.1680   25.5310 C.ar   68  TRP68       0.0012
     79  CZ2       -5.6120   27.5510   23.4820 C.ar   68  TRP68       0.0191
     80  CZ3       -6.0330   25.5440   24.7980 C.ar   68  TRP68       0.0001
     81  CH2       -5.3350   26.2380   23.7780 C.ar   68  TRP68       0.0015
     82  N        -10.2960   26.4200   30.8710 N.3    70  PHE70      -0.1227
     83  CA        -9.7130   26.8140   32.1540 C.3    70  PHE70       0.1736
     84  C         -9.4330   28.3160   32.2810 C.2    70  PHE70       0.2596
     85  O         -8.7680   28.7490   33.2230 O.2    70  PHE70      -0.2718
     86  CB        -8.4090   26.0170   32.4130 C.3    70  PHE70       0.0547
     87  CG        -7.3480   26.2020   31.3420 C.ar   70  PHE70      -0.0202
     88  CD1       -7.4500   25.5440   30.1190 C.ar   70  PHE70      -0.0042
     89  CD2       -6.2660   27.0650   31.5510 C.ar   70  PHE70      -0.0042
     90  CE1       -6.4880   25.7420   29.1000 C.ar   70  PHE70      -0.0003
     91  CE2       -5.2810   27.2840   30.5450 C.ar   70  PHE70      -0.0003
     92  CZ        -5.3980   26.6210   29.3170 C.ar   70  PHE70      -0.0000
     93  N         -9.9230   29.0980   31.3210 N.am   71  SER71      -0.1952
     94  CA        -9.7450   30.5470   31.3350 C.3    71  SER71       0.1924
     95  C        -10.8770   31.1570   30.5140 C.2    71  SER71       0.2314
     96  O        -11.6770   30.4260   29.8930 O.2    71  SER71      -0.2863
     97  CB        -8.3890   30.9560   30.7280 C.3    71  SER71       0.2116
     98  OG        -8.4150   30.9000   29.3070 O.3    71  SER71      -0.2180
     99  N        -10.3620   33.0310   27.9870 N.3    73  SER73      -0.1217
    100  CA        -9.7680   33.3150   26.6920 C.3    73  SER73       0.1889
    101  C        -10.2400   32.4880   25.5060 C.2    73  SER73       0.2288
    102  O        -10.8850   31.4480   25.6480 O.2    73  SER73      -0.2866
    103  CB        -8.2500   33.1610   26.8000 C.3    73  SER73       0.2089
    104  OG        -7.7260   34.0680   27.7370 O.3    73  SER73      -0.2183
    105  N         -8.5850   31.3320   21.4890 N.3    75  THR75      -0.1218
    106  CA        -7.4680   31.3690   20.5650 C.3    75  THR75       0.1862
    107  C         -7.9510   30.8970   19.1840 C.2    75  THR75       0.2287
    108  O         -8.7190   29.9300   19.0960 O.2    75  THR75      -0.2866
    109  CB        -6.3430   30.4030   20.9650 C.3    75  THR75       0.1770
    110  OG1       -5.7540   30.8160   22.1990 O.3    75  THR75      -0.2211
    111  CG2       -5.2650   30.3660   19.8820 C.3    75  THR75       0.0375
    112  N         -6.5450   29.7400   15.3050 N.3    77  PHE77      -0.1241
    113  CA        -5.3730   29.2740   14.5870 C.3    77  PHE77       0.1605
    114  C         -5.6860   29.2120   13.1090 C.2    77  PHE77       0.2264
    115  O         -6.7570   28.7290   12.7180 O.2    77  PHE77      -0.2867
    116  CB        -5.0190   27.8380   14.9600 C.3    77  PHE77       0.0534
    117  CG        -4.2900   27.6720   16.2380 C.ar   77  PHE77      -0.0203
    118  CD1       -4.9580   27.6970   17.4550 C.ar   77  PHE77      -0.0042
    119  CD2       -2.9220   27.3670   16.2270 C.ar   77  PHE77      -0.0042
    120  CE1       -4.2780   27.4120   18.6450 C.ar   77  PHE77      -0.0003
    121  CE2       -2.2420   27.0820   17.4040 C.ar   77  PHE77      -0.0003
    122  CZ        -2.9140   27.1010   18.6130 C.ar   77  PHE77      -0.0000
    123  N         -1.3650   32.0860   15.1670 N.3    95  TRP95      -0.1241
    124  CA        -2.5140   32.2020   16.0440 C.3    95  TRP95       0.1605
    125  C         -2.6310   33.5600   16.6750 C.2    95  TRP95       0.2264
    126  O         -1.6630   34.3150   16.7520 O.2    95  TRP95      -0.2867
    127  CB        -2.4220   31.1530   17.1780 C.3    95  TRP95       0.0550
    128  CG        -1.0750   31.0880   17.8720 C.ar   95  TRP95       0.0003
    129  CD1       -0.0660   30.1730   17.6350 C.ar   95  TRP95       0.0946
    130  CD2       -0.5950   31.9330   18.9440 C.ar   95  TRP95       0.0152
    131  NE1        0.9970   30.3910   18.4940 N.ar   95  TRP95      -0.2442
    132  CE2        0.7100   31.4590   19.3060 C.ar   95  TRP95       0.0810
    133  CE3       -1.1330   33.0360   19.6360 C.ar   95  TRP95       0.0012
    134  CZ2        1.4710   32.0500   20.3250 C.ar   95  TRP95       0.0191
    135  CZ3       -0.3650   33.6360   20.6590 C.ar   95  TRP95       0.0001
    136  CH2        0.9190   33.1390   20.9910 C.ar   95  TRP95       0.0015
    137  N         -4.2600   34.9450   20.2790 N.3    97  LEU97      -0.1245
    138  CA        -4.7520   34.5460   21.6000 C.3    97  LEU97       0.1561
    139  C         -5.4340   35.7670   22.1920 C.2    97  LEU97       0.2260
    140  O         -4.7980   36.8000   22.4450 O.2    97  LEU97      -0.2867
    141  CB        -3.5800   34.1150   22.4870 C.3    97  LEU97       0.0270
    142  CG        -3.8100   34.0610   24.0130 C.3    97  LEU97       0.0019
    143  CD1       -4.8810   33.0610   24.3550 C.3    97  LEU97       0.0001
    144  CD2       -2.5090   33.6600   24.7180 C.3    97  LEU97       0.0001
    145  N          3.1050   28.2120   15.5070 N.3   116  ASN116     -0.1240
    146  CA         3.2380   26.8270   15.9630 C.3   116  ASN116      0.1653
    147  C          3.3410   25.9520   14.7310 C.2   116  ASN116      0.2266
    148  O          2.6910   26.2040   13.7240 O.2   116  ASN116     -0.2867
    149  CB         2.0530   26.3600   16.8020 C.3   116  ASN116      0.1155
    150  CG         2.2380   26.6420   18.2640 C.2   116  ASN116      0.2627
    151  OD1        3.2530   26.2760   18.8500 O.2   116  ASN116     -0.2716
    152  ND2        1.2520   27.2870   18.8730 N.am  116  ASN116     -0.0877
@<TRIPOS>BOND
     1   115   114    2
     2   114   113    1
     3   148   147    2
     4   113   116    1
     5   113   112    1
     6   147   146    1
     7   116   117    1
     8   123   124    1
     9   145   146    1
    10   146   149    1
    11   124   125    1
    12   124   127    1
    13   119   117   ar
    14   119   121   ar
    15   117   118   ar
    16   125   126    2
    17   149   150    1
    18   127   128    1
    19   121   122   ar
    20   118   120   ar
    21   129   128   ar
    22   129   131   ar
    23   128   130   ar
    24     5     2    1
    25     5     6    1
    26     2     1    1
    27     2     3    1
    28   150   151    2
    29   150   152   am
    30   131   132   ar
    31   122   120   ar
    32     3     4    2
    33   130   132   ar
    34   130   133   ar
    35   108   107    2
    36   107   106    1
    37   132   134   ar
    38     6     8   am
    39     6     7    2
    40   133   135   ar
    41    32    30   ar
    42    32    33   ar
    43   111   109    1
    44    34    33    1
    45    30    28   ar
    46   137   138    1
    47   134   136   ar
    48   106   109    1
    49   106   105    1
    50    33    31   ar
    51   135   136   ar
    52    20    19    2
    53     9    10    1
    54   109   110    1
    55    28    27    1
    56    28    29   ar
    57   138   139    1
    58   138   141    1
    59    27    24    1
    60    19    18    1
    61    31    29   ar
    62    14    13    1
    63    14    15    1
    64    14    16    1
    65   139   140    2
    66    23    24    1
    67    10    13    1
    68    10    11    1
    69    24    25    1
    70   141   142    1
    71    21    18    1
    72    21    22    1
    73    17    18    1
    74    11    12    2
    75    79    81   ar
    76    79    77   ar
    77    81    80   ar
    78    25    26    2
    79   142   143    1
    80   142   144    1
    81    76    77   ar
    82    76    74   ar
    83    77    75   ar
    84    80    78   ar
    85    74    73   ar
    86    68    69    1
    87    75    78   ar
    88    75    73   ar
    89   101   102    2
    90   101   100    1
    91    36    35    1
    92    36    39    1
    93    36    37    1
    94    40    39    1
    95    39    41    1
    96    73    72    1
    97    48    46    1
    98    69    72    1
    99    69    70    1
   100    37    38    2
   101   100   103    1
   102   100    99    1
   103   103   104    1
   104    47    46    1
   105    46    43    1
   106    42    43    1
   107    70    71    2
   108    45    44    2
   109    43    44    1
   110    44    49   am
   111    90    92   ar
   112    90    88   ar
   113    60    57    1
   114    98    97    1
   115    92    91   ar
   116    49    50    1
   117    50    51    1
   118    50    53    1
   119    56    51   am
   120    56    57    1
   121    96    95    2
   122    88    87   ar
   123    51    52    2
   124    57    58    1
   125    95    94    1
   126    91    89   ar
   127    53    54    1
   128    53    55    1
   129    97    94    1
   130    82    83    1
   131    93    94    1
   132    93    84   am
   133    87    89   ar
   134    87    86    1
   135    58    61   am
   136    58    59    2
   137    61    62    1
   138    67    65    1
   139    83    84    1
   140    83    86    1
   141    84    85    2
   142    66    65    1
   143    65    62    1
   144    62    63    1
   145    64    63    2
