@<TRIPOS>MOLECULE
tmp/1ldqA01.pdb
 143 135 0 0 0
SMALL
GASTEIGER

@<TRIPOS>ATOM
      1  N          3.1720   19.5850   18.5200 N.3     9  ASN9       -0.1240
      2  CA         3.9700   20.7160   18.0500 C.3     9  ASN9        0.1653
      3  C          5.3020   20.9950   18.7420 C.2     9  ASN9        0.2266
      4  O          5.8020   20.2020   19.5510 O.2     9  ASN9       -0.2867
      5  CB         3.1400   22.0030   18.0800 C.3     9  ASN9        0.1155
      6  CG         2.8600   22.4980   19.4940 C.2     9  ASN9        0.2627
      7  OD1        3.5750   22.1680   20.4420 O.2     9  ASN9       -0.2716
      8  ND2        1.8230   23.3150   19.6330 N.am    9  ASN9       -0.0877
      9  N          5.9600   23.4950   20.8700 N.3    11  LEU11      -0.1245
     10  CA         5.7970   23.8140   22.2850 C.3    11  LEU11       0.1561
     11  C          5.5800   22.4930   23.0200 C.2    11  LEU11       0.2260
     12  O          5.9960   22.3280   24.1620 O.2    11  LEU11      -0.2867
     13  CB         4.5900   24.7460   22.4920 C.3    11  LEU11       0.0270
     14  CG         4.8210   26.2670   22.4840 C.3    11  LEU11       0.0019
     15  CD1        5.6840   26.6670   21.3040 C.3    11  LEU11       0.0001
     16  CD2        3.4720   26.9930   22.4400 C.3    11  LEU11       0.0001
     17  N          2.3160   20.4970   22.4030 N.3    13  SER13      -0.1217
     18  CA         0.8830   20.3430   22.6280 C.3    13  SER13       0.1889
     19  C          0.3180   19.3500   21.6300 C.2    13  SER13       0.2288
     20  O          0.7680   19.2880   20.4880 O.2    13  SER13      -0.2866
     21  CB         0.1610   21.6750   22.4610 C.3    13  SER13       0.2089
     22  OG         0.4680   22.5580   23.5180 O.3    13  SER13      -0.2183
     23  N         -7.9880   19.7940   21.9310 N.3    30  TYR30      -0.1241
     24  CA        -6.7000   20.4520   22.0310 C.3    30  TYR30       0.1605
     25  C         -6.1460   20.2140   23.4160 C.2    30  TYR30       0.2264
     26  O         -6.7470   20.6150   24.4090 O.2    30  TYR30      -0.2867
     27  CB        -6.8400   21.9430   21.7640 C.3    30  TYR30       0.0534
     28  CG        -5.5400   22.5770   21.3490 C.ar   30  TYR30      -0.0201
     29  CD1       -4.5890   22.9650   22.2970 C.ar   30  TYR30      -0.0009
     30  CD2       -5.2340   22.7440   19.9950 C.ar   30  TYR30      -0.0009
     31  CE1       -3.3650   23.5020   21.9000 C.ar   30  TYR30       0.0417
     32  CE2       -4.0130   23.2770   19.5930 C.ar   30  TYR30       0.0417
     33  CZ        -3.0880   23.6530   20.5480 C.ar   30  TYR30       0.1957
     34  OH        -1.8910   24.1800   20.1450 O.3    30  TYR30      -0.2866
     35  N         -2.9050   20.5430   26.1390 N.3    32  THR32      -0.1218
     36  CA        -1.6930   21.2770   26.4940 C.3    32  THR32       0.1862
     37  C         -1.4860   21.1790   27.9970 C.2    32  THR32       0.2287
     38  O         -2.4220   21.3790   28.7800 O.2    32  THR32      -0.2866
     39  CB        -1.7720   22.7780   26.1290 C.3    32  THR32       0.1770
     40  OG1       -2.8310   23.3970   26.8640 O.3    32  THR32      -0.2211
     41  CG2       -2.0270   22.9600   24.6510 C.3    32  THR32       0.0375
     42  N        -11.0530   27.6020   25.0540 N.3    60  TRP60      -0.1241
     43  CA       -10.4090   27.2260   26.3170 C.3    60  TRP60       0.1605
     44  C        -11.3590   26.8620   27.4500 C.2    60  TRP60       0.2264
     45  O        -12.3720   27.5360   27.6770 O.2    60  TRP60      -0.2867
     46  CB        -9.4530   28.3340   26.7630 C.3    60  TRP60       0.0550
     47  CG        -8.3990   28.5940   25.7290 C.ar   60  TRP60       0.0003
     48  CD1       -8.2450   29.7230   24.9830 C.ar   60  TRP60       0.0946
     49  CD2       -7.4260   27.6580   25.2470 C.ar   60  TRP60       0.0152
     50  NE1       -7.2460   29.5490   24.0620 N.ar   60  TRP60      -0.2442
     51  CE2       -6.7250   28.2910   24.1990 C.ar   60  TRP60       0.0810
     52  CE3       -7.0810   26.3420   25.5960 C.ar   60  TRP60       0.0012
     53  CZ2       -5.6970   27.6560   23.4890 C.ar   60  TRP60       0.0191
     54  CZ3       -6.0590   25.7070   24.8920 C.ar   60  TRP60       0.0001
     55  CH2       -5.3790   26.3690   23.8470 C.ar   60  TRP60       0.0015
     56  N        -10.1160   26.2410   30.6960 N.3    62  PHE62      -0.1227
     57  CA        -9.5440   26.6890   31.9560 C.3    62  PHE62       0.1736
     58  C         -9.2930   28.2020   31.9570 C.2    62  PHE62       0.2596
     59  O         -8.5110   28.7040   32.7630 O.2    62  PHE62      -0.2718
     60  CB        -8.2340   25.9410   32.2150 C.3    62  PHE62       0.0547
     61  CG        -7.3000   25.9460   31.0390 C.ar   62  PHE62      -0.0202
     62  CD1       -7.5320   25.1180   29.9460 C.ar   62  PHE62      -0.0042
     63  CD2       -6.2190   26.8210   30.9970 C.ar   62  PHE62      -0.0042
     64  CE1       -6.7040   25.1620   28.8230 C.ar   62  PHE62      -0.0003
     65  CE2       -5.3840   26.8740   29.8800 C.ar   62  PHE62      -0.0003
     66  CZ        -5.6290   26.0430   28.7910 C.ar   62  PHE62      -0.0000
     67  N         -9.9430   28.9200   31.0430 N.am   63  SER63      -0.1952
     68  CA        -9.8030   30.3760   30.9570 C.3    63  SER63       0.1924
     69  C        -10.9320   31.0030   30.1300 C.2    63  SER63       0.2314
     70  O        -11.6860   30.3050   29.4480 O.2    63  SER63      -0.2863
     71  CB        -8.4590   30.7600   30.3340 C.3    63  SER63       0.2116
     72  OG        -8.4600   30.4910   28.9460 O.3    63  SER63      -0.2180
     73  N        -10.3650   32.9300   27.7340 N.3    65  SER65      -0.1217
     74  CA        -9.6910   33.3360   26.5190 C.3    65  SER65       0.1889
     75  C        -10.1080   32.5060   25.3330 C.2    65  SER65       0.2288
     76  O        -10.7710   31.4870   25.4750 O.2    65  SER65      -0.2866
     77  CB        -8.1840   33.2160   26.6910 C.3    65  SER65       0.2089
     78  OG        -7.7380   34.0870   27.7070 O.3    65  SER65      -0.2183
     79  N         -8.4700   31.3460   21.2760 N.3    67  THR67      -0.1218
     80  CA        -7.3200   31.3080   20.3960 C.3    67  THR67       0.1862
     81  C         -7.7750   30.8300   19.0270 C.2    67  THR67       0.2287
     82  O         -8.4810   29.8260   18.9240 O.2    67  THR67      -0.2866
     83  CB        -6.2560   30.3360   20.9140 C.3    67  THR67       0.1770
     84  OG1       -5.7080   30.8360   22.1370 O.3    67  THR67      -0.2211
     85  CG2       -5.1450   30.1760   19.8910 C.3    67  THR67       0.0375
     86  N         -6.5650   29.7810   15.0230 N.3    69  PHE69      -0.1241
     87  CA        -5.4140   29.3350   14.2590 C.3    69  PHE69       0.1605
     88  C         -5.7320   29.3070   12.7820 C.2    69  PHE69       0.2264
     89  O         -6.8020   28.8580   12.3780 O.2    69  PHE69      -0.2867
     90  CB        -5.0200   27.8970   14.6250 C.3    69  PHE69       0.0534
     91  CG        -4.4200   27.7310   15.9880 C.ar   69  PHE69      -0.0203
     92  CD1       -5.2190   27.6830   17.1210 C.ar   69  PHE69      -0.0042
     93  CD2       -3.0500   27.5380   16.1290 C.ar   69  PHE69      -0.0042
     94  CE1       -4.6610   27.4370   18.3730 C.ar   69  PHE69      -0.0003
     95  CE2       -2.4900   27.2940   17.3670 C.ar   69  PHE69      -0.0003
     96  CZ        -3.2970   27.2410   18.4930 C.ar   69  PHE69      -0.0000
     97  N         -1.2850   32.0830   14.9500 N.3    85  TRP85      -0.1241
     98  CA        -2.4530   32.2010   15.8000 C.3    85  TRP85       0.1605
     99  C         -2.5830   33.5570   16.4800 C.2    85  TRP85       0.2264
    100  O         -1.6400   34.3390   16.5280 O.2    85  TRP85      -0.2867
    101  CB        -2.4160   31.1010   16.8700 C.3    85  TRP85       0.0550
    102  CG        -1.1310   31.0420   17.6730 C.ar   85  TRP85       0.0003
    103  CD1       -0.1160   30.1350   17.5310 C.ar   85  TRP85       0.0946
    104  CD2       -0.7330   31.9170   18.7410 C.ar   85  TRP85       0.0152
    105  NE1        0.8840   30.3860   18.4440 N.ar   85  TRP85      -0.2442
    106  CE2        0.5310   31.4730   19.1980 C.ar   85  TRP85       0.0810
    107  CE3       -1.3190   33.0320   19.3550 C.ar   85  TRP85       0.0012
    108  CZ2        1.2160   32.1050   20.2410 C.ar   85  TRP85       0.0191
    109  CZ3       -0.6370   33.6620   20.3920 C.ar   85  TRP85       0.0001
    110  CH2        0.6180   33.1950   20.8250 C.ar   85  TRP85       0.0015
    111  N         -4.1540   35.0360   20.1490 N.3    87  LEU87      -0.1245
    112  CA        -4.6720   34.6640   21.4610 C.3    87  LEU87       0.1561
    113  C         -5.3470   35.8820   22.0730 C.2    87  LEU87       0.2260
    114  O         -4.6900   36.8480   22.4640 O.2    87  LEU87      -0.2867
    115  CB        -3.5370   34.1760   22.3670 C.3    87  LEU87       0.0270
    116  CG        -3.8430   34.0300   23.8670 C.3    87  LEU87       0.0019
    117  CD1       -5.0560   33.1550   24.0790 C.3    87  LEU87       0.0001
    118  CD2       -2.6370   33.4430   24.5770 C.3    87  LEU87       0.0001
    119  N         -7.2780   37.7430   24.9820 N.3    89  SER89      -0.1217
    120  CA        -7.5200   37.6850   26.4140 C.3    89  SER89       0.1889
    121  C         -8.7810   38.4920   26.6450 C.2    89  SER89       0.2288
    122  O         -9.1420   39.3310   25.8240 O.2    89  SER89      -0.2866
    123  CB        -6.3550   38.2960   27.1910 C.3    89  SER89       0.2089
    124  OG        -5.3310   37.3330   27.3890 O.3    89  SER89      -0.2183
    125  N         -2.4670   38.6410   21.5690 N.3   102  ARG102     -0.1245
    126  CA        -1.1300   38.1200   21.3280 C.3   102  ARG102      0.1563
    127  C         -1.1270   37.3550   20.0100 C.2   102  ARG102      0.2260
    128  O         -2.1250   36.7550   19.6180 O.2   102  ARG102     -0.2867
    129  CB        -0.7120   37.1670   22.4440 C.3   102  ARG102      0.0307
    130  CG        -0.4920   37.7910   23.8030 C.3   102  ARG102      0.0489
    131  CD        -0.2370   36.6750   24.7930 C.3   102  ARG102      0.2205
    132  NE         0.2710   37.1380   26.0810 N.pl3 102  ARG102     -0.0865
    133  CZ        -0.4070   37.9010   26.9330 C.cat 102  ARG102      0.5346
    134  NH1       -1.6380   38.3020   26.6390 N.pl3 102  ARG102      0.1354
    135  NH2        0.1470   38.2560   28.0860 N.pl3 102  ARG102      0.1354
    136  N          3.2220   28.3160   15.1640 N.3   106  ASN106     -0.1240
    137  CA         3.1100   26.9360   15.6130 C.3   106  ASN106      0.1653
    138  C          3.1750   25.9560   14.4660 C.2   106  ASN106      0.2266
    139  O          2.3720   26.0200   13.5370 O.2   106  ASN106     -0.2867
    140  CB         1.8130   26.7300   16.3830 C.3   106  ASN106      0.1155
    141  CG         2.0470   26.5360   17.8630 C.2   106  ASN106      0.2627
    142  OD1        1.2100   26.9020   18.6840 O.2   106  ASN106     -0.2716
    143  ND2        3.1840   25.9520   18.2110 N.am  106  ASN106     -0.0877
@<TRIPOS>BOND
     1    89    88    2
     2    88    87    1
     3   139   138    2
     4    87    90    1
     5    87    86    1
     6   138   137    1
     7    90    91    1
     8    97    98    1
     9   136   137    1
    10   137   140    1
    11    98    99    1
    12    98   101    1
    13    91    93   ar
    14    91    92   ar
    15    93    95   ar
    16   140   141    1
    17    99   100    2
    18   101   102    1
    19    92    94   ar
    20    95    96   ar
    21   103   102   ar
    22   103   105   ar
    23   102   104   ar
    24   141   143   am
    25   141   142    2
    26     2     5    1
    27     2     1    1
    28     2     3    1
    29     5     6    1
    30    94    96   ar
    31   105   106   ar
    32   104   106   ar
    33   104   107   ar
    34     3     4    2
    35    82    81    2
    36    81    80    1
    37   106   108   ar
    38   107   109   ar
    39     6     8   am
    40     6     7    2
    41    32    30   ar
    42    32    33   ar
    43   128   127    2
    44    85    83    1
    45    30    28   ar
    46   127   126    1
    47    34    33    1
    48   111   112    1
    49   108   110   ar
    50   109   110   ar
    51    80    83    1
    52    80    79    1
    53    20    19    2
    54    33    31   ar
    55     9    10    1
    56    83    84    1
    57    15    14    1
    58   126   125    1
    59   126   129    1
    60    28    27    1
    61    28    29   ar
    62   112   113    1
    63   112   115    1
    64    19    18    1
    65    27    24    1
    66    31    29   ar
    67    23    24    1
    68    24    25    1
    69   113   114    2
    70    10    13    1
    71    10    11    1
    72   115   116    1
    73    17    18    1
    74    16    14    1
    75   129   130    1
    76    21    18    1
    77    21    22    1
    78    14    13    1
    79    11    12    2
    80    25    26    2
    81    53    55   ar
    82    53    51   ar
    83   130   131    1
    84    55    54   ar
    85   116   117    1
    86   116   118    1
    87    50    51   ar
    88    50    48   ar
    89    51    49   ar
    90    41    39    1
    91   131   132    1
    92    54    52   ar
    93   119   120    1
    94    48    47   ar
    95    42    43    1
    96    49    52   ar
    97    49    47   ar
    98    75    76    2
    99    75    74    1
   100    47    46    1
   101   122   121    2
   102   132   133    2
   103    39    36    1
   104    39    40    1
   105    35    36    1
   106    43    46    1
   107    43    44    1
   108   120   121    1
   109   120   123    1
   110    36    37    1
   111    74    77    1
   112    74    73    1
   113   134   133    1
   114    77    78    1
   115   133   135    1
   116   123   124    1
   117    44    45    2
   118    37    38    2
   119    66    64   ar
   120    66    65   ar
   121    64    62   ar
   122    72    71    1
   123    70    69    2
   124    65    63   ar
   125    62    61   ar
   126    69    68    1
   127    71    68    1
   128    56    57    1
   129    68    67    1
   130    63    61   ar
   131    61    60    1
   132    67    58   am
   133    57    58    1
   134    57    60    1
   135    58    59    2
