@<TRIPOS>MOLECULE
tmp/1ldyA01.pdb
 96 88 0 0 0
SMALL
GASTEIGER

@<TRIPOS>ATOM
      1  N         24.8590   -4.8590    5.7880 N.3    46  CYS46      -0.1235
      2  CA        24.8060   -3.4330    5.9360 C.3    46  CYS46       0.1677
      3  C         25.7940   -3.0630    7.0170 C.2    46  CYS46       0.2270
      4  O         26.0480   -3.9060    7.8960 O.2    46  CYS46      -0.2867
      5  CB        23.3520   -3.0910    6.3090 C.3    46  CYS46       0.0956
      6  SG        23.1980   -1.4250    7.0250 S.3    46  CYS46      -0.0801
      7  N         25.2940   -1.1780    9.5210 N.3    48  SER48      -0.1217
      8  CA        24.6670   -1.2360   10.8460 C.3    48  SER48       0.1889
      9  C         24.8780   -2.6390   11.5120 C.2    48  SER48       0.2288
     10  O         24.9840   -2.6910   12.7360 O.2    48  SER48      -0.2866
     11  CB        23.1910   -0.9290   10.8490 C.3    48  SER48       0.2089
     12  OG        22.8670    0.3150   10.2740 O.3    48  SER48      -0.2183
     13  N         26.8510    0.2730   17.5430 N.3    57  LEU57      -0.1245
     14  CA        25.4270    0.1530   17.7630 C.3    57  LEU57       0.1561
     15  C         25.1860   -0.8000   18.9430 C.2    57  LEU57       0.2260
     16  O         25.5390   -1.9920   18.7800 O.2    57  LEU57      -0.2867
     17  CB        24.7390   -0.4160   16.5180 C.3    57  LEU57       0.0270
     18  CG        23.2090   -0.4990   16.5340 C.3    57  LEU57       0.0019
     19  CD1       22.5760    0.8740   16.7890 C.3    57  LEU57       0.0001
     20  CD2       22.6590   -1.1120   15.2450 C.3    57  LEU57       0.0001
     21  N         19.4370   -7.3630    9.0850 N.3    67  HIS67      -0.1241
     22  CA        18.1110   -6.7490    9.0820 C.3    67  HIS67       0.1621
     23  C         17.7220   -6.4560    7.6630 C.2    67  HIS67       0.2264
     24  O         16.6240   -6.0420    7.4320 O.2    67  HIS67      -0.2867
     25  CB        18.1130   -5.5100   10.0510 C.3    67  HIS67       0.0745
     26  CG        19.2690   -4.6690    9.5640 C.ar   67  HIS67       0.0817
     27  ND1       20.5680   -4.9560    9.7960 N.ar   67  HIS67      -0.2268
     28  CD2       19.1420   -3.5170    8.8140 C.ar   67  HIS67       0.1154
     29  CE1       21.2410   -3.9920    9.2050 C.ar   67  HIS67       0.1986
     30  NE2       20.4350   -3.1180    8.6110 N.ar   67  HIS67      -0.2212
     31  N         12.7510   -3.8100    9.7580 N.3    93  PHE93      -0.1241
     32  CA        13.5230   -3.4320   10.9430 C.3    93  PHE93       0.1605
     33  C         12.8330   -2.3170   11.6890 C.2    93  PHE93       0.2264
     34  O         12.9970   -2.1300   12.8730 O.2    93  PHE93      -0.2867
     35  CB        15.0090   -3.1750   10.7060 C.3    93  PHE93       0.0534
     36  CG        15.4560   -1.9310   10.0280 C.ar   93  PHE93      -0.0203
     37  CD1       15.5870   -0.7290   10.7630 C.ar   93  PHE93      -0.0042
     38  CD2       15.7650   -1.8940    8.6670 C.ar   93  PHE93      -0.0042
     39  CE1       16.0080    0.4510   10.1510 C.ar   93  PHE93      -0.0003
     40  CE2       16.1820   -0.7170    8.0740 C.ar   93  PHE93      -0.0003
     41  CZ        16.2950    0.4360    8.8280 C.ar   93  PHE93      -0.0000
     42  N         14.5930   -0.1360   18.4830 N.3   116  LEU116     -0.1245
     43  CA        15.7570    0.6850   18.2790 C.3   116  LEU116      0.1561
     44  C         16.1040    1.6510   19.4300 C.2   116  LEU116      0.2260
     45  O         17.2720    1.6810   19.7730 O.2   116  LEU116     -0.2867
     46  CB        15.6110    1.4470   16.9580 C.3   116  LEU116      0.0270
     47  CG        15.5620    0.6700   15.6510 C.3   116  LEU116      0.0019
     48  CD1       14.1560    0.2080   15.2310 C.3   116  LEU116      0.0001
     49  CD2       16.0320    1.6500   14.5390 C.3   116  LEU116      0.0001
     50  N         16.4540   -5.8490   16.1770 N.3   141  LEU141     -0.1245
     51  CA        15.4670   -5.0130   15.4880 C.3   141  LEU141      0.1561
     52  C         14.2240   -5.7720   15.0000 C.2   141  LEU141      0.2260
     53  O         13.6610   -5.3520   13.9980 O.2   141  LEU141     -0.2867
     54  CB        16.0510   -4.2510   14.2980 C.3   141  LEU141      0.0270
     55  CG        17.4020   -3.6110   14.5860 C.3   141  LEU141      0.0019
     56  CD1       17.9500   -2.9060   13.3670 C.3   141  LEU141      0.0001
     57  CD2       17.2680   -2.6180   15.7360 C.3   141  LEU141      0.0001
     58  N         16.5890   -2.2960    3.6550 N.3   174  CYS174     -0.1235
     59  CA        17.4210   -1.3720    4.3610 C.3   174  CYS174      0.1677
     60  C         18.1500   -0.2950    3.5160 C.2   174  CYS174      0.2270
     61  O         17.6530    0.8100    3.2800 O.2   174  CYS174     -0.2867
     62  CB        18.4920   -2.0340    5.2370 C.3   174  CYS174      0.0956
     63  SG        19.1940   -0.7060    6.2620 S.3   174  CYS174     -0.0801
     64  N         22.0910   10.5810    8.2550 N.3   292  VAL292     -0.1245
     65  CA        21.6850    9.2310    7.9480 C.3   292  VAL292      0.1561
     66  C         22.5630    8.2400    8.7050 C.2   292  VAL292      0.2260
     67  O         22.1870    7.2380    9.2740 O.2   292  VAL292     -0.2867
     68  CB        21.5890    8.9240    6.4500 C.3   292  VAL292      0.0252
     69  CG1       21.0760    7.5070    6.2620 C.3   292  VAL292      0.0019
     70  CG2       20.7020    9.9570    5.7040 C.3   292  VAL292      0.0019
     71  N         24.9570    6.4380   11.5280 N.3   294  VAL294     -0.1245
     72  CA        24.7330    6.1050   12.9540 C.3   294  VAL294      0.1561
     73  C         26.0780    6.2570   13.6190 C.2   294  VAL294      0.2260
     74  O         26.9800    5.5540   13.1850 O.2   294  VAL294     -0.2867
     75  CB        24.3230    4.6260   13.0780 C.3   294  VAL294      0.0252
     76  CG1       24.3330    4.3650   14.5360 C.3   294  VAL294      0.0019
     77  CG2       23.0520    4.3640   12.3000 C.3   294  VAL294      0.0019
     78  N         15.1840    7.4340   10.0230 N.3   318  ILE318     -0.1231
     79  CA        15.4290    6.0320   10.0550 C.3   318  ILE318      0.1692
     80  C         14.7490    5.5040    8.8050 C.2   318  ILE318      0.2592
     81  O         13.6050    5.8780    8.5220 O.2   318  ILE318     -0.2718
     82  CB        14.7690    5.3350   11.2550 C.3   318  ILE318      0.0266
     83  CG1       15.2040    6.0130   12.5720 C.3   318  ILE318      0.0019
     84  CG2       15.0740    3.8700   11.2260 C.3   318  ILE318      0.0020
     85  CD1       16.7260    5.9260   12.7360 C.3   318  ILE318      0.0001
     86  N         15.4190    4.6710    8.0520 N.am  319  PHE319     -0.1976
     87  CA        14.7880    4.0520    6.8820 C.3   319  PHE319      0.1639
     88  C         14.2490    5.0460    5.8950 C.2   319  PHE319      0.2290
     89  O         13.1340    4.8410    5.4100 O.2   319  PHE319     -0.2864
     90  CB        13.6530    3.0870    7.3680 C.3   319  PHE319      0.0560
     91  CG        13.2410    2.0660    6.3420 C.ar  319  PHE319     -0.0200
     92  CD1       14.1750    1.2450    5.7050 C.ar  319  PHE319     -0.0042
     93  CD2       11.9380    1.8880    5.9740 C.ar  319  PHE319     -0.0042
     94  CE1       13.8550    0.3010    4.7590 C.ar  319  PHE319     -0.0003
     95  CE2       11.5900    0.9420    5.0280 C.ar  319  PHE319     -0.0003
     96  CZ        12.5440    0.1490    4.4190 C.ar  319  PHE319     -0.0000
@<TRIPOS>BOND
     1    61    60    2
     2    60    59    1
     3    58    59    1
     4    59    62    1
     5    96    94   ar
     6    96    95   ar
     7    94    92   ar
     8    95    93   ar
     9    62    63    1
    10    89    88    2
    11    70    68    1
    12    92    91   ar
    13     1     2    1
    14    88    87    1
    15     2     5    1
    16     2     3    1
    17    93    91   ar
    18    69    68    1
    19     5     6    1
    20    91    90    1
    21    68    65    1
    22    87    90    1
    23    87    86    1
    24     3     4    2
    25    24    23    2
    26    23    22    1
    27    65    64    1
    28    65    66    1
    29    86    80   am
    30    40    38   ar
    31    40    41   ar
    32    81    80    2
    33    30    28   ar
    34    30    29   ar
    35    38    36   ar
    36    66    67    2
    37    80    79    1
    38    28    26   ar
    39    41    39   ar
    40    22    21    1
    41    22    25    1
    42    29    27   ar
    43     7     8    1
    44    26    27   ar
    45    26    25    1
    46    31    32    1
    47    78    79    1
    48    36    35    1
    49    36    37   ar
    50    79    82    1
    51    39    37   ar
    52    12    11    1
    53    35    32    1
    54     8    11    1
    55     8     9    1
    56    32    33    1
    57    84    82    1
    58    82    83    1
    59     9    10    2
    60    71    72    1
    61    33    34    2
    62    77    75    1
    63    83    85    1
    64    72    75    1
    65    72    73    1
    66    75    76    1
    67    74    73    2
    68    56    55    1
    69    53    52    2
    70    54    55    1
    71    54    51    1
    72    49    47    1
    73    55    57    1
    74    52    51    1
    75    48    47    1
    76    20    18    1
    77    51    50    1
    78    47    46    1
    79    17    18    1
    80    17    14    1
    81    18    19    1
    82    46    43    1
    83    13    14    1
    84    14    15    1
    85    43    42    1
    86    43    44    1
    87    16    15    2
    88    44    45    2
