@<TRIPOS>MOLECULE
tmp/1le6B00.pdb
 74 71 0 0 0
SMALL
GASTEIGER

@<TRIPOS>ATOM
      1  N         26.8860   23.4530   12.8480 N.3    28  GLY28      -0.1210
      2  CA        27.3740   23.5640   14.2100 C.3    28  GLY28       0.1956
      3  C         28.8920   23.6200   14.1930 C.2    28  GLY28       0.2612
      4  O         29.5040   23.6460   13.1250 O.2    28  GLY28      -0.2717
      5  N         29.5010   23.6430   15.3730 N.am   29  LEU29      -0.1965
      6  CA        30.9560   23.7000   15.4890 C.3    29  LEU29       0.1728
      7  C         31.6400   22.6010   14.6770 C.2    29  LEU29       0.2616
      8  O         31.3010   21.4270   14.8010 O.2    29  LEU29      -0.2715
      9  CB        31.3610   23.5890   16.9630 C.3    29  LEU29       0.0311
     10  CG        32.8560   23.5070   17.2780 C.3    29  LEU29       0.0022
     11  CD1       33.5790   24.7030   16.6760 C.3    29  LEU29       0.0001
     12  CD2       33.0540   23.4540   18.7940 C.3    29  LEU29       0.0001
     13  N         32.6010   22.9940   13.8430 N.am   30  GLY30      -0.1955
     14  CA        33.3140   22.0330   13.0200 C.3    30  GLY30       0.1869
     15  C         32.4210   21.3350   12.0060 C.2    30  GLY30       0.2309
     16  O         31.4240   21.8920   11.5480 O.2    30  GLY30      -0.2863
     17  N         30.6410   26.4460    5.9990 N.3    47  ASP47      -0.1225
     18  CA        31.8690   26.1930    6.7480 C.3    47  ASP47       0.1805
     19  C         33.0680   26.5620    5.8760 C.2    47  ASP47       0.2598
     20  O         34.0320   27.1700    6.3450 O.2    47  ASP47      -0.2718
     21  CB        31.9750   24.7120    7.1350 C.3    47  ASP47       0.1424
     22  CG        31.0800   24.3410    8.3120 C.2    47  ASP47       0.3668
     23  OD1       31.1460   23.1740    8.7560 O.co2  47  ASP47      -0.2456
     24  OD2       30.3200   25.2080    8.7920 O.co2  47  ASP47      -0.2456
     25  N         33.0000   26.1750    4.6060 N.am   48  CYS48      -0.1970
     26  CA        34.0650   26.4570    3.6450 C.3    48  CYS48       0.1712
     27  C         34.2700   27.9580    3.5020 C.2    48  CYS48       0.2296
     28  O         35.4040   28.4410    3.4180 O.2    48  CYS48      -0.2864
     29  CB        33.7050   25.8920    2.2690 C.3    48  CYS48       0.0983
     30  SG        33.7210   24.0780    2.0870 S.3    48  CYS48      -0.0798
     31  N         33.3690   30.3660    5.7370 N.3    50  TYR50      -0.1227
     32  CA        33.9030   30.9100    6.9810 C.3    50  TYR50       0.1736
     33  C         35.3970   30.6060    7.0950 C.2    50  TYR50       0.2596
     34  O         36.1660   31.4130    7.6150 O.2    50  TYR50      -0.2718
     35  CB        33.1480   30.3240    8.1850 C.3    50  TYR50       0.0548
     36  CG        31.9900   31.1730    8.6820 C.ar   50  TYR50      -0.0200
     37  CD1       31.4090   32.1470    7.8680 C.ar   50  TYR50      -0.0009
     38  CD2       31.4570   30.9790    9.9600 C.ar   50  TYR50      -0.0009
     39  CE1       30.3240   32.9090    8.3100 C.ar   50  TYR50       0.0417
     40  CE2       30.3710   31.7350   10.4120 C.ar   50  TYR50       0.0417
     41  CZ        29.8100   32.6980    9.5780 C.ar   50  TYR50       0.1957
     42  OH        28.7340   33.4420   10.0070 O.3    50  TYR50      -0.2866
     43  N         35.8090   29.4390    6.6080 N.am   51  THR51      -0.1953
     44  CA        37.2210   29.0760    6.6500 C.3    51  THR51       0.1897
     45  C         38.0110   30.1060    5.8530 C.2    51  THR51       0.2313
     46  O         39.0630   30.5720    6.2980 O.2    51  THR51      -0.2863
     47  CB        37.4690   27.6780    6.0480 C.3    51  THR51       0.1794
     48  OG1       36.8200   26.6960    6.8590 O.3    51  THR51      -0.2208
     49  CG2       38.9610   27.3710    5.9940 C.3    51  THR51       0.0378
     50  N         38.2100   33.3220    7.8240 N.3    54  GLU54      -0.1245
     51  CA        39.1940   33.2630    8.9010 C.3    54  GLU54       0.1567
     52  C         40.6100   33.4280    8.3580 C.2    54  GLU54       0.2260
     53  O         41.4430   34.1060    8.9640 O.2    54  GLU54      -0.2867
     54  CB        39.0800   31.9340    9.6480 C.3    54  GLU54       0.0388
     55  CG        37.7030   31.6780   10.2240 C.3    54  GLU54       0.1160
     56  CD        37.5770   30.3000   10.8360 C.2    54  GLU54       0.3649
     57  OE1       38.0390   29.3230   10.2110 O.co2  54  GLU54      -0.2457
     58  OE2       37.0010   30.1910   11.9380 O.co2  54  GLU54      -0.2457
     59  N         34.3720   35.4810   12.1380 N.3    60  PRO60      -0.2102
     60  CA        32.9970   35.0700   11.8190 C.3    60  PRO60       0.1504
     61  C         31.9770   35.0540   12.9550 C.2    60  PRO60       0.2575
     62  O         30.8010   35.3460   12.7360 O.2    60  PRO60      -0.2718
     63  CB        33.1850   33.6810   11.2110 C.3    60  PRO60       0.0282
     64  CG        34.5300   33.7790   10.5740 C.3    60  PRO60       0.0208
     65  CD        35.3350   34.4830   11.6400 C.3    60  PRO60       0.0893
     66  N         32.4190   34.7130   14.1610 N.am   61  LYS61      -0.1980
     67  CA        31.5170   34.6300   15.3060 C.3    61  LYS61       0.1596
     68  C         31.0880   35.9600   15.9120 C.2    61  LYS61       0.2287
     69  O         30.0240   36.0450   16.5230 O.2    61  LYS61      -0.2864
     70  CB        32.1530   33.8050   16.4280 C.3    61  LYS61       0.0298
     71  CG        32.6500   32.4270   16.0370 C.3    61  LYS61       0.0038
     72  CD        33.4120   31.8040   17.2060 C.3    61  LYS61       0.0206
     73  CE        34.0070   30.4470   16.8540 C.3    61  LYS61       0.1093
     74  NZ        34.8780   29.9360   17.9560 N.3    61  LYS61      -0.1314
@<TRIPOS>BOND
     1    30    29    1
     2    29    26    1
     3    28    27    2
     4    27    26    1
     5    26    25    1
     6    25    19   am
     7    31    32    1
     8    45    46    2
     9    45    44    1
    10    19    20    2
    11    19    18    1
    12    49    47    1
    13    17    18    1
    14    47    44    1
    15    47    48    1
    16    43    44    1
    17    43    33   am
    18    18    21    1
    19    32    33    1
    20    32    35    1
    21    33    34    2
    22    21    22    1
    23    50    51    1
    24    37    39   ar
    25    37    36   ar
    26    35    36    1
    27    39    41   ar
    28    22    23   ar
    29    22    24   ar
    30    52    51    1
    31    52    53    2
    32    36    38   ar
    33    51    54    1
    34    41    42    1
    35    41    40   ar
    36    54    55    1
    37    38    40   ar
    38    57    56   ar
    39    55    56    1
    40    64    63    1
    41    64    65    1
    42    56    58   ar
    43    63    60    1
    44    16    15    2
    45    65    59    1
    46    60    59    1
    47    60    61    1
    48    15    14    1
    49    62    61    2
    50     1     2    1
    51    61    66   am
    52    14    13    1
    53     4     3    2
    54    13     7   am
    55    66    67    1
    56     3     2    1
    57     3     5   am
    58     7     8    2
    59     7     6    1
    60    67    68    1
    61    67    70    1
    62     5     6    1
    63     6     9    1
    64    68    69    2
    65    71    70    1
    66    71    72    1
    67    11    10    1
    68    73    72    1
    69    73    74    1
    70     9    10    1
    71    10    12    1
