@<TRIPOS>MOLECULE
tmp/1le7B00.pdb
 91 87 0 0 0
SMALL
GASTEIGER

@<TRIPOS>ATOM
      1  N         56.4900   45.8650   -5.9640 N.3     2  ILE2       -0.1245
      2  CA        55.1670   45.2990   -5.7300 C.3     2  ILE2        0.1561
      3  C         55.1490   44.1510   -4.7240 C.2     2  ILE2        0.2260
      4  O         54.3580   44.1670   -3.7830 O.2     2  ILE2       -0.2867
      5  CB        54.5340   44.8020   -7.0490 C.3     2  ILE2        0.0252
      6  CG1       53.1960   44.1230   -6.7590 C.3     2  ILE2        0.0019
      7  CG2       55.4760   43.8360   -7.7510 C.3     2  ILE2        0.0019
      8  CD1       52.1800   45.0280   -6.1060 C.3     2  ILE2        0.0001
      9  N         55.9360   45.3630   -1.2580 N.3     5  LEU5       -0.1245
     10  CA        54.8300   46.1800   -0.7790 C.3     5  LEU5        0.1561
     11  C         53.7150   45.2900   -0.2430 C.2     5  LEU5        0.2260
     12  O         53.2040   45.5160    0.8450 O.2     5  LEU5       -0.2867
     13  CB        54.2950   47.0610   -1.9120 C.3     5  LEU5        0.0270
     14  CG        52.9880   47.8130   -1.6580 C.3     5  LEU5        0.0019
     15  CD1       53.1170   48.6860   -0.4230 C.3     5  LEU5        0.0001
     16  CD2       52.6500   48.6570   -2.8790 C.3     5  LEU5        0.0001
     17  N         43.5030   46.2960   -0.5160 N.3    20  TYR20      -0.1227
     18  CA        43.8260   47.6800   -0.8520 C.3    20  TYR20       0.1736
     19  C         44.1460   47.8700   -2.3290 C.2    20  TYR20       0.2595
     20  O         44.5800   48.9450   -2.7460 O.2    20  TYR20      -0.2718
     21  CB        45.0150   48.1530   -0.0270 C.3    20  TYR20       0.0548
     22  CG        44.8600   47.9050    1.4470 C.ar   20  TYR20      -0.0200
     23  CD1       45.5850   46.8960    2.0820 C.ar   20  TYR20      -0.0009
     24  CD2       44.0070   48.6890    2.2160 C.ar   20  TYR20      -0.0009
     25  CE1       45.4670   46.6790    3.4520 C.ar   20  TYR20       0.0417
     26  CE2       43.8850   48.4810    3.5820 C.ar   20  TYR20       0.0417
     27  CZ        44.6180   47.4790    4.1940 C.ar   20  TYR20       0.1957
     28  OH        44.5250   47.2960    5.5540 O.3    20  TYR20      -0.2866
     29  N         43.9230   46.8220   -3.1130 N.am   21  MET21      -0.1979
     30  CA        44.1990   46.8550   -4.5410 C.3    21  MET21       0.1605
     31  C         43.4400   47.9950   -5.2210 C.2    21  MET21       0.2287
     32  O         44.0110   48.7480   -6.0050 O.2    21  MET21      -0.2864
     33  CB        43.8220   45.5080   -5.1590 C.3    21  MET21       0.0413
     34  CG        44.3930   45.2690   -6.5400 C.3    21  MET21       0.0598
     35  SD        44.1850   43.5440   -7.0390 S.3    21  MET21      -0.1393
     36  CE        42.3680   43.4170   -7.0440 C.3    21  MET21       0.0692
     37  N         45.6420   52.1880   -5.0260 N.3    28  GLY28      -0.1210
     38  CA        45.6600   51.5700   -6.3400 C.3    28  GLY28       0.1956
     39  C         46.2310   52.5440   -7.3500 C.2    28  GLY28       0.2612
     40  O         46.2920   53.7370   -7.0880 O.2    28  GLY28      -0.2717
     41  N         46.6500   52.0410   -8.5050 N.am   29  LEU29      -0.1965
     42  CA        47.2240   52.8830   -9.5560 C.3    29  LEU29       0.1728
     43  C         46.6150   54.2930   -9.5710 C.2    29  LEU29       0.2616
     44  O         45.3960   54.4550   -9.6190 O.2    29  LEU29      -0.2715
     45  CB        47.0210   52.2010  -10.9130 C.3    29  LEU29       0.0311
     46  CG        47.4310   50.7180  -10.9370 C.3    29  LEU29       0.0022
     47  CD1       46.9130   50.0530  -12.1960 C.3    29  LEU29       0.0001
     48  CD2       48.9450   50.5900  -10.8440 C.3    29  LEU29       0.0001
     49  N         47.4730   55.3080   -9.5090 N.am   30  GLY30      -0.1955
     50  CA        47.0010   56.6850   -9.5170 C.3    30  GLY30       0.1869
     51  C         46.2240   57.0650   -8.2690 C.2    30  GLY30       0.2309
     52  O         46.0670   56.2530   -7.3620 O.2    30  GLY30      -0.2863
     53  N         51.4850   57.3500    0.9870 N.3    46  HIS46      -0.1226
     54  CA        52.3130   56.3720    0.2970 C.3    46  HIS46       0.1752
     55  C         52.5640   56.8580   -1.1200 C.2    46  HIS46       0.2596
     56  O         53.6550   56.6790   -1.6630 O.2    46  HIS46      -0.2718
     57  CB        51.6140   55.0090    0.2830 C.3    46  HIS46       0.0759
     58  CG        52.4440   53.9050   -0.2900 C.ar   46  HIS46       0.0818
     59  ND1       52.2960   53.4560   -1.5850 N.ar   46  HIS46      -0.2268
     60  CD2       53.4220   53.1480    0.2610 C.ar   46  HIS46       0.1154
     61  CE1       53.1440   52.4670   -1.8050 C.ar   46  HIS46       0.1986
     62  NE2       53.8390   52.2600   -0.7010 N.ar   46  HIS46      -0.2212
     63  N         51.5500   57.4770   -1.7170 N.am   47  ASP47      -0.1974
     64  CA        51.6830   58.0060   -3.0690 C.3    47  ASP47       0.1709
     65  C         52.7230   59.1160   -3.0690 C.2    47  ASP47       0.2293
     66  O         53.5510   59.2040   -3.9760 O.2    47  ASP47      -0.2864
     67  CB        50.3400   58.5410   -3.5750 C.3    47  ASP47       0.1436
     68  CG        49.3740   57.4320   -3.9300 C.2    47  ASP47       0.3671
     69  OD1       48.2480   57.7310   -4.3860 O.co2  47  ASP47      -0.2456
     70  OD2       49.7470   56.2550   -3.7540 O.co2  47  ASP47      -0.2456
     71  N         56.1170   57.4610   -2.6890 N.3    50  TYR50      -0.1241
     72  CA        56.5350   56.8510   -3.9430 C.3    50  TYR50       0.1605
     73  C         56.9290   57.8940   -4.9740 C.2    50  TYR50       0.2264
     74  O         57.7740   57.6400   -5.8280 O.2    50  TYR50      -0.2867
     75  CB        55.4230   55.9510   -4.4940 C.3    50  TYR50       0.0534
     76  CG        55.5960   54.4890   -4.1360 C.ar   50  TYR50      -0.0201
     77  CD1       56.2870   54.1130   -2.9860 C.ar   50  TYR50      -0.0009
     78  CD2       55.0680   53.4820   -4.9430 C.ar   50  TYR50      -0.0009
     79  CE1       56.4510   52.7720   -2.6460 C.ar   50  TYR50       0.0417
     80  CE2       55.2270   52.1320   -4.6120 C.ar   50  TYR50       0.0417
     81  CZ        55.9220   51.7880   -3.4590 C.ar   50  TYR50       0.1957
     82  OH        56.0970   50.4690   -3.1150 O.3    50  TYR50      -0.2866
     83  N         57.8730   50.5590   -8.1560 N.3    61  LYS61      -0.1245
     84  CA        57.1160   49.3680   -8.5170 C.3    61  LYS61       0.1561
     85  C         57.9490   48.1320   -8.8300 C.2    61  LYS61       0.2260
     86  O         57.5070   47.0130   -8.5830 O.2    61  LYS61      -0.2867
     87  CB        56.1840   49.6670   -9.7010 C.3    61  LYS61       0.0271
     88  CG        54.7390   49.9720   -9.2940 C.3    61  LYS61       0.0035
     89  CD        54.3530   51.4300   -9.5050 C.3    61  LYS61       0.0206
     90  CE        54.2340   51.7690  -10.9830 C.3    61  LYS61       0.1093
     91  NZ        53.7460   53.1640  -11.1960 N.3    61  LYS61      -0.1314
@<TRIPOS>BOND
     1    47    46    1
     2    91    90    1
     3    90    89    1
     4    46    45    1
     5    46    48    1
     6    45    42    1
     7    87    88    1
     8    87    84    1
     9    44    43    2
    10    43    42    1
    11    43    49   am
    12    42    41    1
    13    50    49    1
    14    50    51    1
    15    89    88    1
    16    85    86    2
    17    85    84    1
    18    84    83    1
    19    41    39   am
    20    51    52    2
    21     7     5    1
    22    39    40    2
    23    39    38    1
    24     5     6    1
    25     5     2    1
    26    36    35    1
    27    35    34    1
    28     6     8    1
    29    34    33    1
    30    38    37    1
    31    32    31    2
    32     1     2    1
    33    74    73    2
    34     2     3    1
    35    31    30    1
    36    33    30    1
    37    73    72    1
    38    78    80   ar
    39    78    76   ar
    40     3     4    2
    41    80    81   ar
    42    30    29    1
    43    75    76    1
    44    75    72    1
    45    69    68   ar
    46    76    77   ar
    47    66    65    2
    48    72    71    1
    49    68    70   ar
    50    68    67    1
    51    67    64    1
    52    81    82    1
    53    81    79   ar
    54    29    19   am
    55    64    65    1
    56    64    63    1
    57    77    79   ar
    58    16    14    1
    59    20    19    2
    60    19    18    1
    61    13    14    1
    62    13    10    1
    63    61    59   ar
    64    61    62   ar
    65    63    55   am
    66    56    55    2
    67    14    15    1
    68    59    58   ar
    69     9    10    1
    70    55    54    1
    71    18    17    1
    72    18    21    1
    73    10    11    1
    74    62    60   ar
    75    58    60   ar
    76    58    57    1
    77    11    12    2
    78    21    22    1
    79    57    54    1
    80    54    53    1
    81    22    23   ar
    82    22    24   ar
    83    23    25   ar
    84    24    26   ar
    85    25    27   ar
    86    26    27   ar
    87    27    28    1
