@<TRIPOS>MOLECULE
tmp/1le7B01.pdb
 105 99 0 0 0
SMALL
GASTEIGER

@<TRIPOS>ATOM
      1  N         56.4900   45.8650   -5.9640 N.3     2  ILE2       -0.1245
      2  CA        55.1670   45.2990   -5.7300 C.3     2  ILE2        0.1561
      3  C         55.1490   44.1510   -4.7240 C.2     2  ILE2        0.2260
      4  O         54.3580   44.1670   -3.7830 O.2     2  ILE2       -0.2867
      5  CB        54.5340   44.8020   -7.0490 C.3     2  ILE2        0.0252
      6  CG1       53.1960   44.1230   -6.7590 C.3     2  ILE2        0.0019
      7  CG2       55.4760   43.8360   -7.7510 C.3     2  ILE2        0.0019
      8  CD1       52.1800   45.0280   -6.1060 C.3     2  ILE2        0.0001
      9  N         55.9360   45.3630   -1.2580 N.3     5  LEU5       -0.1231
     10  CA        54.8300   46.1800   -0.7790 C.3     5  LEU5        0.1693
     11  C         53.7150   45.2900   -0.2430 C.2     5  LEU5        0.2591
     12  O         53.2040   45.5160    0.8450 O.2     5  LEU5       -0.2718
     13  CB        54.2950   47.0610   -1.9120 C.3     5  LEU5        0.0284
     14  CG        52.9880   47.8130   -1.6580 C.3     5  LEU5        0.0019
     15  CD1       53.1170   48.6860   -0.4230 C.3     5  LEU5        0.0001
     16  CD2       52.6500   48.6570   -2.8790 C.3     5  LEU5        0.0001
     17  N         53.3440   44.2710   -1.0130 N.am    6  ALA6       -0.1980
     18  CA        52.2890   43.3560   -0.5990 C.3     6  ALA6        0.1597
     19  C         52.7410   42.6190    0.6530 C.2     6  ALA6        0.2287
     20  O         51.9670   42.4170    1.5920 O.2     6  ALA6       -0.2864
     21  CB        51.9970   42.3670   -1.7090 C.3     6  ALA6        0.0319
     22  N         52.8400   44.9110    3.9160 N.3     9  VAL9       -0.1245
     23  CA        51.4810   45.2150    4.3560 C.3     9  VAL9        0.1561
     24  C         50.8430   43.9940    5.0040 C.2     9  VAL9        0.2260
     25  O         50.1570   44.1050    6.0160 O.2     9  VAL9       -0.2867
     26  CB        50.5930   45.6680    3.1720 C.3     9  VAL9        0.0252
     27  CG1       49.1340   45.7400    3.6050 C.3     9  VAL9        0.0019
     28  CG2       51.0650   47.0090    2.6610 C.3     9  VAL9        0.0019
     29  N         46.5470   41.8660    1.5870 N.3    17  PRO17      -0.2102
     30  CA        46.9930   43.0720    0.8770 C.3    17  PRO17       0.1504
     31  C         46.0520   43.4090   -0.2820 C.2    17  PRO17       0.2575
     32  O         45.9060   44.5700   -0.6800 O.2    17  PRO17      -0.2718
     33  CB        48.3880   42.6880    0.3750 C.3    17  PRO17       0.0282
     34  CG        48.8310   41.6270    1.3380 C.3    17  PRO17       0.0208
     35  CD        47.5860   40.8220    1.5510 C.3    17  PRO17       0.0893
     36  N         45.4270   42.3700   -0.8180 N.am   18  ILE18      -0.1980
     37  CA        44.4960   42.5010   -1.9250 C.3    18  ILE18       0.1595
     38  C         43.3330   43.4260   -1.5660 C.2    18  ILE18       0.2287
     39  O         42.6710   43.9720   -2.4450 O.2    18  ILE18      -0.2864
     40  CB        43.9790   41.1090   -2.3280 C.3    18  ILE18       0.0276
     41  CG1       45.1390   40.3050   -2.9160 C.3    18  ILE18       0.0022
     42  CG2       42.8290   41.2190   -3.3270 C.3    18  ILE18       0.0022
     43  CD1       44.7580   38.8990   -3.3040 C.3    18  ILE18       0.0001
     44  N         43.5030   46.2960   -0.5160 N.3    20  TYR20      -0.1227
     45  CA        43.8260   47.6800   -0.8520 C.3    20  TYR20       0.1736
     46  C         44.1460   47.8700   -2.3290 C.2    20  TYR20       0.2595
     47  O         44.5800   48.9450   -2.7460 O.2    20  TYR20      -0.2718
     48  CB        45.0150   48.1530   -0.0270 C.3    20  TYR20       0.0548
     49  CG        44.8600   47.9050    1.4470 C.ar   20  TYR20      -0.0200
     50  CD1       45.5850   46.8960    2.0820 C.ar   20  TYR20      -0.0009
     51  CD2       44.0070   48.6890    2.2160 C.ar   20  TYR20      -0.0009
     52  CE1       45.4670   46.6790    3.4520 C.ar   20  TYR20       0.0417
     53  CE2       43.8850   48.4810    3.5820 C.ar   20  TYR20       0.0417
     54  CZ        44.6180   47.4790    4.1940 C.ar   20  TYR20       0.1957
     55  OH        44.5250   47.2960    5.5540 O.3    20  TYR20      -0.2866
     56  N         43.9230   46.8220   -3.1130 N.am   21  MET21      -0.1979
     57  CA        44.1990   46.8550   -4.5410 C.3    21  MET21       0.1605
     58  C         43.4400   47.9950   -5.2210 C.2    21  MET21       0.2287
     59  O         44.0110   48.7480   -6.0050 O.2    21  MET21      -0.2864
     60  CB        43.8220   45.5080   -5.1590 C.3    21  MET21       0.0413
     61  CG        44.3930   45.2690   -6.5400 C.3    21  MET21       0.0598
     62  SD        44.1850   43.5440   -7.0390 S.3    21  MET21      -0.1393
     63  CE        42.3680   43.4170   -7.0440 C.3    21  MET21       0.0692
     64  N         44.0590   54.3480   -3.0480 N.3    27  CYS27      -0.1221
     65  CA        44.6250   52.9990   -2.9920 C.3    27  CYS27       0.1808
     66  C         44.5090   52.3210   -4.3430 C.2    27  CYS27       0.2601
     67  O         43.4200   51.9170   -4.7510 O.2    27  CYS27      -0.2717
     68  CB        43.9190   52.1350   -1.9500 C.3    27  CYS27       0.0970
     69  SG        43.9900   52.7360   -0.2350 S.3    27  CYS27      -0.0800
     70  N         45.6420   52.1880   -5.0260 N.am   28  GLY28      -0.1957
     71  CA        45.6600   51.5700   -6.3400 C.3    28  GLY28       0.1869
     72  C         46.2310   52.5440   -7.3500 C.2    28  GLY28       0.2309
     73  O         46.2920   53.7370   -7.0880 O.2    28  GLY28      -0.2863
     74  N         47.0980   55.5640    1.8830 N.3    43  CYS43      -0.1235
     75  CA        47.4410   55.4130    0.4760 C.3    43  CYS43       0.1677
     76  C         47.8170   56.7640   -0.1290 C.2    43  CYS43       0.2270
     77  O         48.4500   56.8280   -1.1830 O.2    43  CYS43      -0.2867
     78  CB        46.2730   54.7800   -0.2980 C.3    43  CYS43       0.0956
     79  SG        45.9650   53.0300    0.1310 S.3    43  CYS43      -0.0801
     80  N         51.4850   57.3500    0.9870 N.3    46  HIS46      -0.1241
     81  CA        52.3130   56.3720    0.2970 C.3    46  HIS46       0.1621
     82  C         52.5640   56.8580   -1.1200 C.2    46  HIS46       0.2264
     83  O         53.6550   56.6790   -1.6630 O.2    46  HIS46      -0.2867
     84  CB        51.6140   55.0090    0.2830 C.3    46  HIS46       0.0745
     85  CG        52.4440   53.9050   -0.2900 C.ar   46  HIS46       0.0817
     86  ND1       52.2960   53.4560   -1.5850 N.ar   46  HIS46      -0.2268
     87  CD2       53.4220   53.1480    0.2610 C.ar   46  HIS46       0.1154
     88  CE1       53.1440   52.4670   -1.8050 C.ar   46  HIS46       0.1986
     89  NE2       53.8390   52.2600   -0.7010 N.ar   46  HIS46      -0.2212
     90  N         53.4410   52.6830    5.1090 N.3    94  ILE94      -0.1245
     91  CA        52.0430   52.4120    4.8110 C.3    94  ILE94       0.1561
     92  C         51.5810   51.1730    5.5670 C.2    94  ILE94       0.2260
     93  O         50.4610   51.1320    6.0690 O.2    94  ILE94      -0.2867
     94  CB        51.7920   52.2420    3.2830 C.3    94  ILE94       0.0252
     95  CG1       50.2800   52.2240    3.0160 C.3    94  ILE94       0.0019
     96  CG2       52.4440   50.9690    2.7700 C.3    94  ILE94       0.0019
     97  CD1       49.8980   52.0960    1.5670 C.3    94  ILE94       0.0001
     98  N         48.3670   51.3490    7.7320 N.3    98  LEU98      -0.1245
     99  CA        47.2160   50.5140    7.4170 C.3    98  LEU98       0.1561
    100  C         46.8160   49.5620    8.5430 C.2    98  LEU98       0.2260
    101  O         45.6320   49.3370    8.7850 O.2    98  LEU98      -0.2867
    102  CB        47.5140   49.7100    6.1490 C.3    98  LEU98       0.0270
    103  CG        46.8410   50.0640    4.8190 C.3    98  LEU98       0.0019
    104  CD1       46.3560   51.5000    4.8120 C.3    98  LEU98       0.0001
    105  CD2       47.8280   49.8040    3.6830 C.3    98  LEU98       0.0001
@<TRIPOS>BOND
     1     7     5    1
     2    72    73    2
     3    72    71    1
     4     5     6    1
     5     5     2    1
     6    63    62    1
     7    62    61    1
     8     6     8    1
     9    61    60    1
    10    71    70    1
    11    59    58    2
    12     1     2    1
    13     2     3    1
    14    58    57    1
    15    60    57    1
    16    70    66   am
    17    67    66    2
    18     3     4    2
    19    57    56    1
    20    66    65    1
    21    42    40    1
    22    43    41    1
    23    56    46   am
    24    64    65    1
    25    65    68    1
    26    41    40    1
    27    16    14    1
    28    47    46    2
    29    39    38    2
    30    46    45    1
    31    40    37    1
    32    68    69    1
    33    37    38    1
    34    37    36    1
    35    13    14    1
    36    13    10    1
    37    88    86   ar
    38    88    89   ar
    39    21    18    1
    40    83    82    2
    41    14    15    1
    42    86    85   ar
    43     9    10    1
    44    77    76    2
    45    82    81    1
    46    17    18    1
    47    17    11   am
    48    45    44    1
    49    45    48    1
    50    36    31   am
    51    10    11    1
    52    89    87   ar
    53    32    31    2
    54    18    19    1
    55    78    79    1
    56    78    75    1
    57    85    87   ar
    58    85    84    1
    59    31    30    1
    60    11    12    2
    61    69    79    1
    62    76    75    1
    63    48    49    1
    64    84    81    1
    65    81    80    1
    66    33    30    1
    67    33    34    1
    68    75    74    1
    69    19    20    2
    70    30    29    1
    71    34    35    1
    72    49    50   ar
    73    49    51   ar
    74    35    29    1
    75    97    95    1
    76    50    52   ar
    77    51    53   ar
    78    28    26    1
    79    96    94    1
    80    95    94    1
    81    26    27    1
    82    26    23    1
    83    94    91    1
    84    52    54   ar
    85    53    54   ar
    86   105   103    1
    87    22    23    1
    88    54    55    1
    89    23    24    1
    90    91    90    1
    91    91    92    1
    92   104   103    1
    93   103   102    1
    94    24    25    2
    95    92    93    2
    96   102    99    1
    97    99    98    1
    98    99   100    1
    99   100   101    2
