@<TRIPOS>MOLECULE
tmp/1ledA01.pdb
 88 85 0 0 0
SMALL
GASTEIGER

@<TRIPOS>ATOM
      1  N         24.0480   44.2280   24.9430 N.3    17  ASN17      -0.1225
      2  CA        23.4400   42.9020   24.9550 C.3    17  ASN17       0.1785
      3  C         21.9130   42.9950   24.7220 C.2    17  ASN17       0.2597
      4  O         21.2100   43.8880   25.2220 O.2    17  ASN17      -0.2718
      5  CB        23.7300   42.2400   26.2990 C.3    17  ASN17       0.1169
      6  CG        23.0240   40.9160   26.4720 C.2    17  ASN17       0.2627
      7  OD1       22.9560   40.1580   25.4950 O.2    17  ASN17      -0.2716
      8  ND2       22.4560   40.6210   27.6390 N.am   17  ASN17      -0.0877
      9  N         21.4340   42.1430   23.8190 N.am   18  GLY18      -0.1957
     10  CA        20.0170   42.1050   23.5070 C.3    18  GLY18       0.1869
     11  C         19.5650   43.0910   22.4650 C.2    18  GLY18       0.2309
     12  O         18.3970   43.1190   22.1260 O.2    18  GLY18      -0.2863
     13  N         21.8680   38.6320   21.3340 N.3    22  THR22      -0.1203
     14  CA        21.6350   38.3600   22.7370 C.3    22  THR22       0.1994
     15  C         22.5840   37.3030   23.1910 C.2    22  THR22       0.2618
     16  O         22.6770   36.2570   22.5700 O.2    22  THR22      -0.2717
     17  CB        20.2400   37.8120   23.0170 C.3    22  THR22       0.1784
     18  OG1       19.3520   38.8310   22.5690 O.3    22  THR22      -0.2211
     19  CG2       19.9910   37.4490   24.4890 C.3    22  THR22       0.0376
     20  N         23.2720   37.5240   24.2920 N.am   23  PHE23      -0.1961
     21  CA        24.1970   36.5380   24.8050 C.3    23  PHE23       0.1771
     22  C         23.5920   35.8750   26.0340 C.2    23  PHE23       0.2619
     23  O         23.0950   36.5850   26.9000 O.2    23  PHE23      -0.2715
     24  CB        25.5350   37.2040   25.1770 C.3    23  PHE23       0.0574
     25  CG        26.2050   37.8680   23.9790 C.ar   23  PHE23      -0.0200
     26  CD1       25.8400   39.1550   23.6300 C.ar   23  PHE23      -0.0042
     27  CD2       27.1480   37.1810   23.2520 C.ar   23  PHE23      -0.0042
     28  CE1       26.4120   39.7740   22.5510 C.ar   23  PHE23      -0.0003
     29  CE2       27.7280   37.7990   22.1680 C.ar   23  PHE23      -0.0003
     30  CZ        27.3580   39.0860   21.8260 C.ar   23  PHE23      -0.0000
     31  N         23.5740   34.5470   26.1110 N.am   24  LEU24      -0.1963
     32  CA        23.0480   33.7730   27.2130 C.3    24  LEU24       0.1728
     33  C         24.0990   32.8580   27.8420 C.2    24  LEU24       0.2616
     34  O         25.0050   32.3170   27.1740 O.2    24  LEU24      -0.2715
     35  CB        21.8830   32.9100   26.7270 C.3    24  LEU24       0.0311
     36  CG        20.6920   33.5630   26.0480 C.3    24  LEU24       0.0022
     37  CD1       19.6770   32.4610   25.7140 C.3    24  LEU24       0.0001
     38  CD2       20.0650   34.6180   26.9590 C.3    24  LEU24       0.0001
     39  N         23.9840   32.5620   29.1290 N.am   25  GLY25      -0.1955
     40  CA        24.9370   31.6930   29.7970 C.3    25  GLY25       0.1869
     41  C         26.3390   32.2810   29.8440 C.2    25  GLY25       0.2309
     42  O         26.5250   33.4440   30.2030 O.2    25  GLY25      -0.2863
     43  N         28.3210   32.8130   27.1360 N.3    27  ALA27      -0.1231
     44  CA        28.6910   33.4160   25.8760 C.3    27  ALA27       0.1694
     45  C         28.8660   34.8900   26.1160 C.2    27  ALA27       0.2592
     46  O         28.0600   35.5570   26.7780 O.2    27  ALA27      -0.2718
     47  CB        27.6250   33.3040   24.8290 C.3    27  ALA27       0.0304
     48  N         29.9230   35.3930   25.5210 N.am   28  THR28      -0.1953
     49  CA        30.2270   36.7970   25.6540 C.3    28  THR28       0.1897
     50  C         30.7000   37.4840   24.3940 C.2    28  THR28       0.2313
     51  O         31.2280   36.8560   23.4700 O.2    28  THR28      -0.2863
     52  CB        31.2750   36.9180   26.7650 C.3    28  THR28       0.1794
     53  OG1       31.4780   38.2940   26.8530 O.3    28  THR28      -0.2208
     54  CG2       32.6090   36.2060   26.5410 C.3    28  THR28       0.0378
     55  N         11.3420   31.2450   20.4890 N.3    97  VAL97      -0.1231
     56  CA        11.8060   32.5840   20.9080 C.3    97  VAL97       0.1692
     57  C         12.1500   32.8070   22.4060 C.2    97  VAL97       0.2592
     58  O         13.0240   33.5640   22.8330 O.2    97  VAL97      -0.2718
     59  CB        10.7160   33.5770   20.4370 C.3    97  VAL97       0.0266
     60  CG1       11.1500   35.0000   20.7710 C.3    97  VAL97       0.0020
     61  CG2       10.5130   33.4910   18.9310 C.3    97  VAL97       0.0020
     62  N         11.3670   32.0920   23.1940 N.am   98  ASP98      -0.1960
     63  CA        11.4060   32.0160   24.6550 C.3    98  ASP98       0.1840
     64  C         12.4060   30.9850   25.2420 C.2    98  ASP98       0.2623
     65  O         12.5960   30.8850   26.4560 O.2    98  ASP98      -0.2715
     66  CB         9.9590   31.6980   25.1430 C.3    98  ASP98       0.1450
     67  CG         9.3880   30.3920   24.5490 C.2    98  ASP98       0.3671
     68  OD1        9.6420   29.3000   25.0770 O.co2  98  ASP98      -0.2456
     69  OD2        8.7000   30.4580   23.5210 O.co2  98  ASP98      -0.2456
     70  N         13.0700   30.1460   24.4500 N.am   99  SER99      -0.1936
     71  CA        13.9910   29.1620   25.0220 C.3    99  SER99       0.2055
     72  C         15.2850   29.7930   25.5090 C.2    99  SER99       0.2644
     73  O         15.6230   30.9470   25.2150 O.2    99  SER99      -0.2714
     74  CB        14.3410   28.0670   24.0040 C.3    99  SER99       0.2130
     75  OG        14.9630   28.6100   22.8540 O.3    99  SER99      -0.2179
     76  N         16.0050   29.0580   26.3320 N.am  100  SER100     -0.1935
     77  CA        17.2530   29.5390   26.8690 C.3   100  SER100      0.2055
     78  C         18.3310   28.4780   26.8160 C.2   100  SER100      0.2642
     79  O         18.0620   27.3260   26.4400 O.2   100  SER100     -0.2714
     80  CB        17.0850   29.9710   28.3290 C.3   100  SER100      0.2130
     81  OG        18.3030   30.4740   28.9010 O.3   100  SER100     -0.2179
     82  N         19.5570   28.8320   27.2280 N.am  101  VAL101     -0.1977
     83  CA        20.6590   27.8650   27.2140 C.3   101  VAL101      0.1596
     84  C         20.4180   26.7320   28.2020 C.2   101  VAL101      0.2287
     85  O         19.8860   26.8910   29.3000 O.2   101  VAL101     -0.2864
     86  CB        22.0030   28.6220   27.4840 C.3   101  VAL101      0.0276
     87  CG1       21.9850   29.3330   28.8200 C.3   101  VAL101      0.0022
     88  CG2       23.1330   27.6290   27.4200 C.3   101  VAL101      0.0022
@<TRIPOS>BOND
     1    61    59    1
     2    59    60    1
     3    59    56    1
     4    55    56    1
     5    56    57    1
     6    13    14    1
     7    30    29   ar
     8    30    28   ar
     9    12    11    2
    10    29    27   ar
    11    57    58    2
    12    57    62   am
    13    11    10    1
    14    28    26   ar
    15    18    17    1
    16    16    15    2
    17    14    17    1
    18    14    15    1
    19    75    74    1
    20    17    19    1
    21    15    20   am
    22    62    63    1
    23    27    25   ar
    24    51    50    2
    25    10     9    1
    26    69    67   ar
    27    26    25   ar
    28     9     3   am
    29    25    24    1
    30    74    71    1
    31    20    21    1
    32    50    49    1
    33    70    71    1
    34    70    64   am
    35    67    68   ar
    36    67    66    1
    37    63    66    1
    38    63    64    1
    39     3     2    1
    40     3     4    2
    41    21    24    1
    42    21    22    1
    43    47    44    1
    44     1     2    1
    45     2     5    1
    46    71    72    1
    47    73    72    2
    48    64    65    2
    49     7     6    2
    50    72    76   am
    51    48    49    1
    52    48    45   am
    53    49    52    1
    54    37    36    1
    55    44    45    1
    56    44    43    1
    57    22    31   am
    58    22    23    2
    59    36    35    1
    60    36    38    1
    61    31    32    1
    62    45    46    2
    63     5     6    1
    64    76    77    1
    65    79    78    2
    66     6     8   am
    67    54    52    1
    68    35    32    1
    69    52    53    1
    70    78    77    1
    71    78    82   am
    72    77    80    1
    73    34    33    2
    74    32    33    1
    75    83    82    1
    76    83    86    1
    77    83    84    1
    78    88    86    1
    79    86    87    1
    80    33    39   am
    81    84    85    2
    82    80    81    1
    83    39    40    1
    84    40    41    1
    85    41    42    2
