@<TRIPOS>MOLECULE
tmp/1ledA00.pdb
 131 131 0 0 0
SMALL
GASTEIGER

@<TRIPOS>ATOM
      1  N         36.5520   24.1400   31.9620 N.3    47  ARG47      -0.1231
      2  CA        35.7560   22.9210   31.7130 C.3    47  ARG47       0.1694
      3  C         34.2590   23.1460   32.0380 C.2    47  ARG47       0.2592
      4  O         33.9110   24.1400   32.6760 O.2    47  ARG47      -0.2718
      5  CB        36.1980   21.7320   32.5640 C.3    47  ARG47       0.0321
      6  CG        37.5750   21.2390   32.2350 C.3    47  ARG47       0.0489
      7  CD        37.7380   19.8560   32.8610 C.3    47  ARG47       0.2205
      8  NE        39.0620   19.3060   32.5690 N.pl3  47  ARG47      -0.0865
      9  CZ        39.2790   18.1440   31.9170 C.cat  47  ARG47       0.5346
     10  NH1       38.2850   17.3560   31.4530 N.pl3  47  ARG47       0.1354
     11  NH2       40.5470   17.7640   31.7140 N.pl3  47  ARG47       0.1354
     12  N         33.3100   22.3020   31.6490 N.am   48  SER48      -0.1952
     13  CA        31.8800   22.4790   31.9810 C.3    48  SER48       0.1924
     14  C         31.1820   23.8380   31.8970 C.2    48  SER48       0.2314
     15  O         30.5820   24.4120   32.8090 O.2    48  SER48      -0.2863
     16  CB        31.6310   21.9310   33.3850 C.3    48  SER48       0.2116
     17  OG        32.2370   20.6450   33.5140 O.3    48  SER48      -0.2180
     18  N         36.5480   18.7170   23.6980 N.3    87  ALA87      -0.1231
     19  CA        35.1050   18.5190   23.8070 C.3    87  ALA87       0.1694
     20  C         34.4090   19.8410   24.1080 C.2    87  ALA87       0.2592
     21  O         34.9670   20.7060   24.7990 O.2    87  ALA87      -0.2718
     22  CB        34.7640   17.5190   24.9240 C.3    87  ALA87       0.0304
     23  N         33.1680   20.1450   23.7250 N.am   88  ASP88      -0.1974
     24  CA        32.2490   19.2690   22.9840 C.3    88  ASP88       0.1709
     25  C         31.7660   19.6150   21.5940 C.2    88  ASP88       0.2293
     26  O         31.1420   18.8260   20.8990 O.2    88  ASP88      -0.2864
     27  CB        31.0220   19.0750   23.7930 C.3    88  ASP88       0.1436
     28  CG        31.2850   18.0370   24.8610 C.2    88  ASP88       0.3671
     29  OD1       31.1470   16.8510   24.5600 O.co2  88  ASP88      -0.2456
     30  OD2       31.6350   18.4360   25.9700 O.co2  88  ASP88      -0.2456
     31  N         25.4930   21.8630   29.5850 N.3   104  TYR104     -0.1227
     32  CA        26.7750   21.8930   28.9160 C.3   104  TYR104      0.1736
     33  C         27.2620   20.5130   28.5040 C.2   104  TYR104      0.2596
     34  O         26.5050   19.5330   28.5160 O.2   104  TYR104     -0.2718
     35  CB        27.7740   22.5830   29.8070 C.3   104  TYR104      0.0548
     36  CG        27.8500   22.1040   31.2380 C.ar  104  TYR104     -0.0200
     37  CD1       28.2330   20.8090   31.4990 C.ar  104  TYR104     -0.0009
     38  CD2       27.5910   22.9970   32.2530 C.ar  104  TYR104     -0.0009
     39  CE1       28.3720   20.3880   32.7890 C.ar  104  TYR104      0.0417
     40  CE2       27.7350   22.5840   33.5610 C.ar  104  TYR104      0.0417
     41  CZ        28.1300   21.2810   33.8110 C.ar  104  TYR104      0.1957
     42  OH        28.3260   20.8400   35.1070 O.3   104  TYR104     -0.2866
     43  N         28.5490   20.3700   28.1960 N.am  105  GLY105     -0.1942
     44  CA        29.0430   19.0870   27.7390 C.3   105  GLY105      0.2014
     45  C         28.4580   18.7310   26.3690 C.2   105  GLY105      0.2639
     46  O         28.1120   19.6170   25.5830 O.2   105  GLY105     -0.2714
     47  N         28.3010   17.4490   26.0690 N.am  106  GLY106     -0.1939
     48  CA        27.7650   16.9560   24.7960 C.3   106  GLY106      0.2014
     49  C         26.3570   17.4310   24.3940 C.2   106  GLY106      0.2638
     50  O         25.9100   17.2070   23.2760 O.2   106  GLY106     -0.2714
     51  N         25.6090   18.0770   25.2770 N.am  107  PHE107     -0.1973
     52  CA        24.2920   18.5970   24.9420 C.3   107  PHE107      0.1639
     53  C         24.3570   19.9340   24.1920 C.2   107  PHE107      0.2290
     54  O         23.3480   20.5280   23.7620 O.2   107  PHE107     -0.2864
     55  CB        23.4680   18.7790   26.2040 C.3   107  PHE107      0.0560
     56  CG        23.3060   17.4270   26.8270 C.ar  107  PHE107     -0.0200
     57  CD1       22.6580   16.4400   26.1280 C.ar  107  PHE107     -0.0042
     58  CD2       23.9150   17.1910   28.0360 C.ar  107  PHE107     -0.0042
     59  CE1       22.6430   15.1800   26.6490 C.ar  107  PHE107     -0.0003
     60  CE2       23.8940   15.9210   28.5560 C.ar  107  PHE107     -0.0003
     61  CZ        23.2580   14.9230   27.8550 C.ar  107  PHE107     -0.0000
     62  N         20.0100   17.0890   29.9470 N.3   113  HIS113     -0.1241
     63  CA        20.3470   15.6790   30.0860 C.3   113  HIS113      0.1621
     64  C         19.2170   14.6280   30.1540 C.2   113  HIS113      0.2264
     65  O         19.2290   13.5980   29.4820 O.2   113  HIS113     -0.2867
     66  CB        21.2370   15.6290   31.3160 C.3   113  HIS113      0.0745
     67  CG        21.7510   14.2370   31.6390 C.ar  113  HIS113      0.0817
     68  ND1       22.6900   13.4920   31.0270 N.ar  113  HIS113     -0.2268
     69  CD2       21.2270   13.4790   32.6700 C.ar  113  HIS113      0.1154
     70  CE1       22.7440   12.3250   31.6290 C.ar  113  HIS113      0.1986
     71  NE2       21.8640   12.3320   32.6100 N.ar  113  HIS113     -0.2212
     72  N         33.4090   15.5990   20.2240 N.3   132  TRP132     -0.1241
     73  CA        33.4830   14.5260   21.1910 C.3   132  TRP132      0.1605
     74  C         32.5530   13.3550   20.9980 C.2   132  TRP132      0.2264
     75  O         31.3210   13.4500   20.9370 O.2   132  TRP132     -0.2867
     76  CB        33.2270   15.1030   22.5650 C.3   132  TRP132      0.0550
     77  CG        33.3560   14.0720   23.6700 C.ar  132  TRP132      0.0003
     78  CD1       32.2940   13.3890   24.2090 C.ar  132  TRP132      0.0946
     79  CD2       34.5530   13.7330   24.2060 C.ar  132  TRP132      0.0152
     80  NE1       32.8390   12.6000   25.0860 N.ar  132  TRP132     -0.2442
     81  CE2       34.1750   12.7690   25.1260 C.ar  132  TRP132      0.0810
     82  CE3       35.8700   14.1170   24.0070 C.ar  132  TRP132      0.0012
     83  CZ2       35.1600   12.1690   25.8990 C.ar  132  TRP132      0.0191
     84  CZ3       36.8480   13.5170   24.7700 C.ar  132  TRP132      0.0001
     85  CH2       36.4860   12.5550   25.6980 C.ar  132  TRP132      0.0015
     86  N         30.3920   10.9740   22.2980 N.3   134  ASN134     -0.1240
     87  CA        29.5770   10.5660   23.4260 C.3   134  ASN134      0.1653
     88  C         28.9240    9.2320   23.0290 C.2   134  ASN134      0.2266
     89  O         27.8700    9.1150   22.3820 O.2   134  ASN134     -0.2867
     90  CB        28.4340   11.4860   23.7450 C.3   134  ASN134      0.1155
     91  CG        28.9300   12.8290   24.2160 C.2   134  ASN134      0.2627
     92  OD1       29.3930   13.6090   23.4040 O.2   134  ASN134     -0.2716
     93  ND2       28.9380   13.2300   25.4690 N.am  134  ASN134     -0.0877
     94  N         27.6220    7.0910   24.9070 N.3   136  ASP136     -0.1225
     95  CA        26.3380    6.9620   25.5710 C.3   136  ASP136      0.1805
     96  C         25.1280    7.6830   24.9390 C.2   136  ASP136      0.2597
     97  O         23.9790    7.4790   25.3420 O.2   136  ASP136     -0.2718
     98  CB        26.5540    7.3890   27.0550 C.3   136  ASP136      0.1424
     99  CG        26.8930    8.8420   27.3740 C.2   136  ASP136      0.3668
    100  OD1       27.7170    9.4760   26.6970 O.co2 136  ASP136     -0.2456
    101  OD2       26.2950    9.3230   28.3400 O.co2 136  ASP136     -0.2456
    102  N         25.3020    8.5550   23.9450 N.am  137  TRP137     -0.1976
    103  CA        24.1690    9.2310   23.3080 C.3   137  TRP137      0.1640
    104  C         24.1330    8.9770   21.8060 C.2   137  TRP137      0.2290
    105  O         23.5980    9.7360   20.9940 O.2   137  TRP137     -0.2864
    106  CB        24.2060   10.7470   23.5420 C.3   137  TRP137      0.0576
    107  CG        24.0230   11.1050   25.0040 C.ar  137  TRP137      0.0006
    108  CD1       25.1050   11.3790   25.7900 C.ar  137  TRP137      0.0946
    109  CD2       22.8450   11.1910   25.6900 C.ar  137  TRP137      0.0152
    110  NE1       24.6280   11.6400   26.9830 N.ar  137  TRP137     -0.2442
    111  CE2       23.2950   11.5400   26.9660 C.ar  137  TRP137      0.0810
    112  CE3       21.5020   11.0330   25.4270 C.ar  137  TRP137      0.0012
    113  CZ2       22.4250   11.7480   28.0130 C.ar  137  TRP137      0.0191
    114  CZ3       20.6220   11.2420   26.4760 C.ar  137  TRP137      0.0001
    115  CH2       21.0750   11.5940   27.7470 C.ar  137  TRP137      0.0015
    116  N         32.7740   20.4500   28.5430 N.3   221  GLY221     -0.1210
    117  CA        33.8700   19.8950   27.7670 C.3   221  GLY221      0.1956
    118  C         35.2100   20.3850   28.3010 C.2   221  GLY221      0.2611
    119  O         35.3000   20.8590   29.4400 O.2   221  GLY221     -0.2717
    120  N         36.2400   20.3460   27.4850 N.am  222  TYR222     -0.1976
    121  CA        37.5440   20.7620   27.9360 C.3   222  TYR222      0.1639
    122  C         38.4620   21.0890   26.7700 C.2   222  TYR222      0.2290
    123  O         38.2510   20.5910   25.6470 O.2   222  TYR222     -0.2864
    124  CB        38.1960   19.6340   28.7970 C.3   222  TYR222      0.0560
    125  CG        38.5840   18.3610   28.0560 C.ar  222  TYR222     -0.0198
    126  CD1       37.6200   17.4330   27.7540 C.ar  222  TYR222     -0.0009
    127  CD2       39.8850   18.1740   27.6190 C.ar  222  TYR222     -0.0009
    128  CE1       37.9560   16.3330   27.0030 C.ar  222  TYR222      0.0417
    129  CE2       40.2340   17.0730   26.8670 C.ar  222  TYR222      0.0417
    130  CZ        39.2460   16.1720   26.5690 C.ar  222  TYR222      0.1957
    131  OH        39.5200   15.0870   25.7790 O.3   222  TYR222     -0.2866
@<TRIPOS>BOND
     1    72    73    1
     2    26    25    2
     3    75    74    2
     4   105   104    2
     5    74    73    1
     6    73    76    1
     7    25    24    1
     8   104   103    1
     9    86    87    1
    10    89    88    2
    11    76    77    1
    12    24    23    1
    13    24    27    1
    14    88    87    1
    15    50    49    2
    16   103   106    1
    17   103   102    1
    18    92    91    2
    19    87    90    1
    20   106   107    1
    21    77    79   ar
    22    77    78   ar
    23    18    19    1
    24    23    20   am
    25    90    91    1
    26    54    53    2
    27    27    28    1
    28    19    20    1
    29    19    22    1
    30   102    96   am
    31    82    79   ar
    32    82    84   ar
    33    20    21    2
    34    53    52    1
    35    79    81   ar
    36    78    80   ar
    37    91    93   am
    38    49    48    1
    39    49    51   am
    40    29    28   ar
    41    84    85   ar
    42    48    47    1
    43    28    30   ar
    44    94    95    1
    45    96    97    2
    46    96    95    1
    47    52    51    1
    48    52    55    1
    49   107   109   ar
    50   107   108   ar
    51    80    81   ar
    52    81    83   ar
    53   112   109   ar
    54   112   114   ar
    55    95    98    1
    56    46    45    2
    57   123   122    2
    58   109   111   ar
    59    85    83   ar
    60   131   130    1
    61   108   110   ar
    62    47    45   am
    63    57    59   ar
    64    57    56   ar
    65    55    56    1
    66    45    44    1
    67   114   115   ar
    68   130   129   ar
    69   130   128   ar
    70    59    61   ar
    71   100    99   ar
    72   122   121    1
    73    56    58   ar
    74   129   127   ar
    75   111   110   ar
    76   111   113   ar
    77   128   126   ar
    78    98    99    1
    79    99   101   ar
    80   120   121    1
    81   120   118   am
    82   127   125   ar
    83    44    43    1
    84   115   113   ar
    85   126   125   ar
    86   117   118    1
    87   117   116    1
    88    61    60   ar
    89   121   124    1
    90    58    60   ar
    91   125   124    1
    92    43    33   am
    93   118   119    2
    94    33    34    2
    95    33    32    1
    96    32    31    1
    97    32    35    1
    98    65    64    2
    99    35    36    1
   100    62    63    1
   101    63    64    1
   102    63    66    1
   103    68    70   ar
   104    68    67   ar
   105    36    37   ar
   106    36    38   ar
   107    66    67    1
   108    10     9    1
   109    37    39   ar
   110    70    71   ar
   111    67    69   ar
   112    12    13    1
   113    12     3   am
   114     2     1    1
   115     2     3    1
   116     2     5    1
   117    11     9    1
   118    14    13    1
   119    14    15    2
   120     9     8    2
   121    13    16    1
   122     3     4    2
   123     6     5    1
   124     6     7    1
   125    38    40   ar
   126     8     7    1
   127    71    69   ar
   128    39    41   ar
   129    16    17    1
   130    40    41   ar
   131    41    42    1
