@<TRIPOS>MOLECULE
tmp/1lelA01.pdb
 137 130 0 0 0
SMALL
GASTEIGER

@<TRIPOS>ATOM
      1  N         16.0100   46.8940    9.8930 N.3    10  ASN10      -0.1240
      2  CA        17.2700   47.5170   10.2740 C.3    10  ASN10       0.1653
      3  C         17.6930   48.7870    9.5580 C.2    10  ASN10       0.2266
      4  O         17.0530   49.2700    8.6240 O.2    10  ASN10      -0.2867
      5  CB        18.4230   46.5220   10.1650 C.3    10  ASN10       0.1155
      6  CG        18.6910   46.0920    8.7430 C.2    10  ASN10       0.2627
      7  OD1       18.6520   46.9020    7.8150 O.2    10  ASN10      -0.2716
      8  ND2       18.9910   44.8030    8.5670 N.am   10  ASN10      -0.0877
      9  N         19.6890   49.2040    7.4960 N.3    12  LEU12      -0.1245
     10  CA        20.1190   48.9230    6.1260 C.3    12  LEU12       0.1561
     11  C         19.0020   48.6530    5.1480 C.2    12  LEU12       0.2260
     12  O         19.2520   48.3530    3.9810 O.2    12  LEU12      -0.2867
     13  CB        21.0340   47.6960    6.1030 C.3    12  LEU12       0.0270
     14  CG        21.7660   47.4000    4.7930 C.3    12  LEU12       0.0019
     15  CD1       22.8380   48.4450    4.5270 C.3    12  LEU12       0.0001
     16  CD2       22.3770   46.0060    4.8250 C.3    12  LEU12       0.0001
     17  N         16.6490   46.1680    5.5060 N.3    14  SER14      -0.1217
     18  CA        16.5000   44.6990    5.4360 C.3    14  SER14       0.1889
     19  C         15.5260   44.1960    6.5710 C.2    14  SER14       0.2288
     20  O         15.9430   44.0270    7.7180 O.2    14  SER14      -0.2866
     21  CB        17.8870   44.0060    5.5210 C.3    14  SER14       0.2089
     22  OG        18.6380   44.1660    4.3180 O.3    14  SER14      -0.2183
     23  N         14.2990   36.1230    6.3080 N.3    31  TYR31      -0.1241
     24  CA        15.0920   37.3240    6.1550 C.3    31  TYR31       0.1605
     25  C         14.8300   37.9000    4.7810 C.2    31  TYR31       0.2264
     26  O         14.7950   37.1850    3.7880 O.2    31  TYR31      -0.2867
     27  CB        16.5670   37.0090    6.3270 C.3    31  TYR31       0.0534
     28  CG        17.4130   38.1090    6.9340 C.ar   31  TYR31      -0.0201
     29  CD1       18.2890   38.8470    6.1490 C.ar   31  TYR31      -0.0009
     30  CD2       17.3470   38.4030    8.2900 C.ar   31  TYR31      -0.0009
     31  CE1       19.0860   39.8330    6.6990 C.ar   31  TYR31       0.0417
     32  CE2       18.1460   39.3820    8.8500 C.ar   31  TYR31       0.0417
     33  CZ        19.0160   40.0910    8.0500 C.ar   31  TYR31       0.1957
     34  OH        19.8230   41.0570    8.6070 O.3    31  TYR31      -0.2866
     35  N         15.8090   41.0160    1.9810 N.3    33  THR33      -0.1218
     36  CA        16.7180   42.0630    1.5490 C.3    33  THR33       0.1862
     37  C         16.6970   42.1290    0.0240 C.2    33  THR33       0.2287
     38  O         16.1470   41.2360   -0.6270 O.2    33  THR33      -0.2866
     39  CB        18.1550   41.8070    2.0290 C.3    33  THR33       0.1770
     40  OG1       19.0090   42.8310    1.4920 O.3    33  THR33      -0.2211
     41  CG2       18.6370   40.4170    1.6010 C.3    33  THR33       0.0375
     42  N         21.8270   31.5990    2.6160 N.3    60  TRP60      -0.1241
     43  CA        21.2030   32.2680    1.4940 C.3    60  TRP60       0.1605
     44  C         20.8070   31.3660    0.3350 C.2    60  TRP60       0.2264
     45  O         21.5450   30.4560   -0.0710 O.2    60  TRP60      -0.2867
     46  CB        22.1250   33.4080    1.0240 C.3    60  TRP60       0.0550
     47  CG        22.7400   34.1420    2.2080 C.ar   60  TRP60       0.0003
     48  CD1       23.9080   33.8270    2.8550 C.ar   60  TRP60       0.0946
     49  CD2       22.1670   35.2420    2.9350 C.ar   60  TRP60       0.0152
     50  NE1       24.0950   34.6570    3.9340 N.ar   60  TRP60      -0.2442
     51  CE2       23.0440   35.5360    4.0080 C.ar   60  TRP60       0.0810
     52  CE3       21.0010   36.0080    2.7840 C.ar   60  TRP60       0.0012
     53  CZ2       22.7880   36.5720    4.9300 C.ar   60  TRP60       0.0191
     54  CZ3       20.7460   37.0380    3.7000 C.ar   60  TRP60       0.0001
     55  CH2       21.6390   37.3100    4.7580 C.ar   60  TRP60       0.0015
     56  N         20.3010   32.5970   -2.5710 N.3    62  PHE62      -0.1227
     57  CA        20.8410   33.1730   -3.7880 C.3    62  PHE62       0.1736
     58  C         22.3540   32.9850   -3.9480 C.2    62  PHE62       0.2596
     59  O         22.9370   33.4160   -4.9410 O.2    62  PHE62      -0.2718
     60  CB        20.4670   34.6510   -3.9090 C.3    62  PHE62       0.0547
     61  CG        20.8730   35.4970   -2.7370 C.ar   62  PHE62      -0.0202
     62  CD1       20.1380   35.4800   -1.5550 C.ar   62  PHE62      -0.0042
     63  CD2       21.9770   36.3480   -2.8300 C.ar   62  PHE62      -0.0042
     64  CE1       20.4960   36.3050   -0.4800 C.ar   62  PHE62      -0.0003
     65  CE2       22.3410   37.1710   -1.7660 C.ar   62  PHE62      -0.0003
     66  CZ        21.5990   37.1520   -0.5880 C.ar   62  PHE62      -0.0000
     67  N         22.9890   32.3380   -2.9730 N.am   63  SER63      -0.1952
     68  CA        24.4330   32.0540   -3.0390 C.3    63  SER63       0.1924
     69  C         24.8720   31.0440   -1.9570 C.2    63  SER63       0.2314
     70  O         24.0770   30.6430   -1.0950 O.2    63  SER63      -0.2863
     71  CB        25.2660   33.3450   -2.9260 C.3    63  SER63       0.2116
     72  OG        25.1850   33.9000   -1.6230 O.3    63  SER63      -0.2180
     73  N         26.6990   31.3720    0.6840 N.3    65  SER65      -0.1217
     74  CA        27.2100   32.0440    1.8610 C.3    65  SER65       0.1889
     75  C         26.3500   31.7740    3.0580 C.2    65  SER65       0.2288
     76  O         25.2250   31.3270    2.9420 O.2    65  SER65      -0.2866
     77  CB        27.2320   33.5560    1.6580 C.3    65  SER65       0.2089
     78  OG        28.3350   33.9330    0.8750 O.3    65  SER65      -0.2183
     79  N         25.6190   33.6460    7.1090 N.3    67  THR67      -0.1218
     80  CA        25.8180   34.7560    8.0060 C.3    67  THR67       0.1862
     81  C         25.2730   34.2770    9.3230 C.2    67  THR67       0.2287
     82  O         24.2290   33.6260    9.3830 O.2    67  THR67      -0.2866
     83  CB        24.9990   35.9850    7.6220 C.3    67  THR67       0.1770
     84  OG1       25.3540   36.3880    6.2950 O.3    67  THR67      -0.2211
     85  CG2       25.2550   37.1430    8.6080 C.3    67  THR67       0.0375
     86  N         24.4420   35.6150   13.3260 N.3    69  PHE69      -0.1241
     87  CA        24.2530   36.7920   14.1740 C.3    69  PHE69       0.1605
     88  C         24.2320   36.4050   15.6470 C.2    69  PHE69       0.2264
     89  O         23.7710   35.3170   16.0000 O.2    69  PHE69      -0.2867
     90  CB        22.9120   37.4560   13.8900 C.3    69  PHE69       0.0534
     91  CG        22.7630   37.9580   12.5140 C.ar   69  PHE69      -0.0203
     92  CD1       22.8690   37.1020   11.4360 C.ar   69  PHE69      -0.0042
     93  CD2       22.5200   39.3110   12.2850 C.ar   69  PHE69      -0.0042
     94  CE1       22.7380   37.5910   10.1300 C.ar   69  PHE69      -0.0003
     95  CE2       22.3880   39.8200   10.9980 C.ar   69  PHE69      -0.0003
     96  CZ        22.4980   38.9550    9.9160 C.ar   69  PHE69      -0.0000
     97  N         27.5120   40.3140   13.1560 N.3    87  TRP87      -0.1241
     98  CA        27.5370   39.1310   12.3440 C.3    87  TRP87       0.1605
     99  C         28.8580   38.7750   11.6900 C.2    87  TRP87       0.2264
    100  O         29.8030   39.5660   11.6390 O.2    87  TRP87      -0.2867
    101  CB        26.4540   39.2260   11.2920 C.3    87  TRP87       0.0550
    102  CG        26.4410   40.5000   10.6000 C.ar   87  TRP87       0.0003
    103  CD1       25.5970   41.5380   10.8200 C.ar   87  TRP87       0.0946
    104  CD2       27.3090   40.8970    9.5320 C.ar   87  TRP87       0.0152
    105  NE1       25.8800   42.5690    9.9450 N.ar   87  TRP87      -0.2442
    106  CE2       26.9280   42.1980    9.1470 C.ar   87  TRP87       0.0810
    107  CE3       28.3700   40.2760    8.8620 C.ar   87  TRP87       0.0012
    108  CZ2       27.5670   42.8850    8.1250 C.ar   87  TRP87       0.0191
    109  CZ3       29.0030   40.9560    7.8510 C.ar   87  TRP87       0.0001
    110  CH2       28.6010   42.2490    7.4870 C.ar   87  TRP87       0.0015
    111  N         29.9320   36.8880    8.1390 N.3    89  LEU89      -0.1245
    112  CA        29.4580   36.4840    6.8300 C.3    89  LEU89       0.1561
    113  C         30.5670   35.6620    6.1650 C.2    89  LEU89       0.2260
    114  O         31.6260   36.1930    5.8350 O.2    89  LEU89      -0.2867
    115  CB        29.1490   37.7350    6.0230 C.3    89  LEU89       0.0270
    116  CG        28.8170   37.5970    4.5500 C.3    89  LEU89       0.0019
    117  CD1       27.4070   37.0810    4.3880 C.3    89  LEU89       0.0001
    118  CD2       28.9430   38.9560    3.8980 C.3    89  LEU89       0.0001
    119  N         33.7630   38.0570    6.7860 N.3   104  ARG104     -0.1245
    120  CA        33.4460   39.4740    6.9150 C.3   104  ARG104      0.1563
    121  C         32.7210   39.6110    8.2350 C.2   104  ARG104      0.2260
    122  O         32.0700   38.6810    8.6960 O.2   104  ARG104     -0.2867
    123  CB        32.5390   39.9440    5.7810 C.3   104  ARG104      0.0307
    124  CG        33.2960   40.2290    4.5270 C.3   104  ARG104      0.0489
    125  CD        32.3740   40.5370    3.3900 C.3   104  ARG104      0.2205
    126  NE        33.1530   40.6180    2.1560 N.pl3 104  ARG104     -0.0865
    127  CZ        32.6440   40.5960    0.9250 C.cat 104  ARG104      0.5346
    128  NH1       31.3220   40.4990    0.7350 N.pl3 104  ARG104      0.1354
    129  NH2       33.4720   40.6420   -0.1190 N.pl3 104  ARG104      0.1354
    130  N         24.6220   45.4650   13.0500 N.3   108  ASN108     -0.1240
    131  CA        23.3020   45.6230   12.4950 C.3   108  ASN108      0.1653
    132  C         22.2950   45.7490   13.6010 C.2   108  ASN108      0.2266
    133  O         22.1670   44.8560   14.4260 O.2   108  ASN108     -0.2867
    134  CB        22.9650   44.4370   11.6210 C.3   108  ASN108      0.1155
    135  CG        22.4860   44.8490   10.2690 C.2   108  ASN108      0.2627
    136  OD1       22.7410   44.1720    9.2870 O.2   108  ASN108     -0.2716
    137  ND2       21.7800   45.9720   10.2040 N.am  108  ASN108     -0.0877
@<TRIPOS>BOND
     1    59    58    2
     2    58    57    1
     3    58    67   am
     4    60    57    1
     5    60    61    1
     6    57    56    1
     7    68    67    1
     8    68    71    1
     9    68    69    1
    10    71    72    1
    11    63    61   ar
    12    63    65   ar
    13    61    62   ar
    14    69    70    2
    15    65    66   ar
    16    62    64   ar
    17    38    37    2
    18    66    64   ar
    19   129   127    1
    20    45    44    2
    21    37    36    1
    22    44    43    1
    23    73    74    1
    24   128   127    1
    25    78    77    1
    26   127   126    2
    27    46    43    1
    28    46    47    1
    29    40    39    1
    30    43    42    1
    31    36    35    1
    32    36    39    1
    33    41    39    1
    34    77    74    1
    35    74    75    1
    36   126   125    1
    37    47    48   ar
    38    47    49   ar
    39    52    49   ar
    40    52    54   ar
    41    48    50   ar
    42    49    51   ar
    43    76    75    2
    44   125   124    1
    45    54    55   ar
    46    26    25    2
    47   118   116    1
    48    50    51   ar
    49    12    11    2
    50    51    53   ar
    51    22    21    1
    52   117   116    1
    53    15    14    1
    54   124   123    1
    55   116   115    1
    56    55    53   ar
    57    25    24    1
    58    14    16    1
    59    14    13    1
    60    11    10    1
    61    18    17    1
    62    18    21    1
    63    18    19    1
    64   123   120    1
    65   114   113    2
    66   115   112    1
    67    13    10    1
    68    10     9    1
    69    29    31   ar
    70    29    28   ar
    71    24    23    1
    72    24    27    1
    73   113   112    1
    74    84    83    1
    75    27    28    1
    76    19    20    2
    77    31    33   ar
    78   119   120    1
    79   112   111    1
    80   120   121    1
    81    28    30   ar
    82    79    80    1
    83   110   109   ar
    84   110   108   ar
    85    83    80    1
    86    83    85    1
    87     7     6    2
    88   109   107   ar
    89    80    81    1
    90    33    34    1
    91    33    32   ar
    92   108   106   ar
    93   121   122    2
    94    30    32   ar
    95     8     6   am
    96     4     3    2
    97     6     5    1
    98   107   104   ar
    99   106   104   ar
   100   106   105   ar
   101   136   135    2
   102    81    82    2
   103   104   102   ar
   104     3     2    1
   105     1     2    1
   106    96    94   ar
   107    96    95   ar
   108   105   103   ar
   109    94    92   ar
   110     5     2    1
   111   137   135   am
   112   135   134    1
   113   102   103   ar
   114   102   101    1
   115    95    93   ar
   116   101    98    1
   117    92    91   ar
   118   134   131    1
   119   100    99    2
   120    99    98    1
   121    93    91   ar
   122    98    97    1
   123   131   130    1
   124   131   132    1
   125    91    90    1
   126    86    87    1
   127   132   133    2
   128    90    87    1
   129    87    88    1
   130    88    89    2
