@<TRIPOS>MOLECULE
tmp/1levA01.pdb
 169 162 0 0 0
SMALL
GASTEIGER

@<TRIPOS>ATOM
      1  N          9.1160  -20.6490   -2.6920 N.3     8  PHE8       -0.1227
      2  CA        10.2500  -21.2830   -2.0110 C.3     8  PHE8        0.1736
      3  C          9.8420  -22.4190   -1.0690 C.2     8  PHE8        0.2595
      4  O         10.4450  -23.4300   -1.1860 O.2     8  PHE8       -0.2718
      5  CB        11.0560  -20.1900   -1.2280 C.3     8  PHE8        0.0547
      6  CG        12.1720  -20.7290   -0.4060 C.ar    8  PHE8       -0.0202
      7  CD1       11.9740  -21.0730    0.9150 C.ar    8  PHE8       -0.0042
      8  CD2       13.4180  -20.8230   -0.9130 C.ar    8  PHE8       -0.0042
      9  CE1       13.0280  -21.5680    1.6950 C.ar    8  PHE8       -0.0003
     10  CE2       14.4740  -21.3130   -0.1540 C.ar    8  PHE8       -0.0003
     11  CZ        14.2850  -21.7240    1.1550 C.ar    8  PHE8       -0.0000
     12  N          8.8310  -22.2520   -0.1910 N.am    9  VAL9       -0.1980
     13  CA         8.4870  -23.3280    0.7680 C.3     9  VAL9        0.1595
     14  C          7.8350  -24.5920    0.1120 C.2     9  VAL9        0.2287
     15  O          8.0460  -25.7220    0.5330 O.2     9  VAL9       -0.2864
     16  CB         7.7080  -22.8770    2.0520 C.3     9  VAL9        0.0276
     17  CG1        8.2350  -21.5990    2.6590 C.3     9  VAL9        0.0022
     18  CG2        6.2180  -22.7440    1.8920 C.3     9  VAL9        0.0022
     19  N         10.7020  -26.4450   -1.4300 N.3    12  GLU12      -0.1231
     20  CA        11.3760  -27.1390   -0.3580 C.3    12  GLU12       0.1699
     21  C         10.5750  -28.3150    0.2080 C.2    12  GLU12       0.2592
     22  O         11.1600  -29.2740    0.6280 O.2    12  GLU12      -0.2718
     23  CB        11.6470  -26.1120    0.7420 C.3    12  GLU12       0.0402
     24  CG        12.5850  -24.9800    0.3440 C.3    12  GLU12       0.1161
     25  CD        13.9110  -25.5320   -0.1990 C.2    12  GLU12       0.3649
     26  OE1       14.5230  -26.3900    0.4280 O.co2  12  GLU12      -0.2457
     27  OE2       14.2930  -25.0810   -1.3910 O.co2  12  GLU12      -0.2457
     28  N          9.2490  -28.2090    0.2310 N.am   13  GLY13      -0.1957
     29  CA         8.3850  -29.2740    0.7130 C.3    13  GLY13       0.1869
     30  C          8.4750  -30.5050   -0.1880 C.2    13  GLY13       0.2309
     31  O          8.5860  -31.6290    0.3060 O.2    13  GLY13      -0.2863
     32  N         11.7370  -32.3970   -0.0450 N.3    16  ALA16      -0.1231
     33  CA        11.7480  -33.1300    1.1900 C.3    16  ALA16       0.1694
     34  C         10.6920  -34.2070    1.2530 C.2    16  ALA16       0.2592
     35  O         10.5390  -34.8190    2.2950 O.2    16  ALA16      -0.2718
     36  CB        11.4470  -32.1440    2.3030 C.3    16  ALA16       0.0304
     37  N          9.9060  -34.3470    0.1970 N.am   17  ARG17      -0.1966
     38  CA         8.8100  -35.3060    0.1600 C.3    17  ARG17       0.1729
     39  C          7.9270  -35.1060    1.3850 C.2    17  ARG17       0.2617
     40  O          7.7430  -36.0440    2.1610 O.2    17  ARG17      -0.2715
     41  CB         9.3460  -36.7520    0.1020 C.3    17  ARG17       0.0348
     42  CG        10.3600  -37.0300   -0.9970 C.3    17  ARG17       0.0492
     43  CD         9.6990  -37.2880   -2.3510 C.3    17  ARG17       0.2205
     44  NE         9.4470  -38.7020   -2.6250 N.pl3  17  ARG17      -0.0865
     45  CZ         8.4300  -39.4210   -2.1650 C.cat  17  ARG17       0.5346
     46  NH1        7.4860  -38.8980   -1.3730 N.pl3  17  ARG17       0.1354
     47  NH2        8.3820  -40.6960   -2.5270 N.pl3  17  ARG17       0.1354
     48  N          7.4010  -33.9010    1.6000 N.am   18  GLY18      -0.1940
     49  CA         6.5660  -33.7110    2.7700 C.3    18  GLY18       0.2014
     50  C          5.0980  -33.8930    2.4340 C.2    18  GLY18       0.2640
     51  O          4.7270  -33.9880    1.2700 O.2    18  GLY18      -0.2714
     52  N          4.2580  -33.8620    3.4650 N.am   19  THR19      -0.1936
     53  CA         2.8340  -33.9620    3.2920 C.3    19  THR19       0.2028
     54  C          2.2080  -32.6730    2.8450 C.2    19  THR19       0.2643
     55  O          1.0790  -32.7280    2.3600 O.2    19  THR19      -0.2714
     56  CB         2.1890  -34.3710    4.5940 C.3    19  THR19       0.1808
     57  OG1        2.3680  -33.3360    5.5760 O.3    19  THR19      -0.2208
     58  CG2        2.8530  -35.6600    5.1100 C.3    19  THR19       0.0379
     59  N          2.8990  -31.5440    3.0340 N.am   20  GLY20      -0.1939
     60  CA         2.3610  -30.2230    2.6770 C.3    20  GLY20       0.2014
     61  C          1.8660  -29.4210    3.8960 C.2    20  GLY20       0.2639
     62  O          1.5080  -28.2590    3.8470 O.2    20  GLY20      -0.2714
     63  N          1.8710  -30.0880    5.0300 N.am   21  GLU21      -0.1963
     64  CA         1.4410  -29.5320    6.2920 C.3    21  GLU21       0.1733
     65  C          2.3190  -28.3870    6.7070 C.2    21  GLU21       0.2616
     66  O          1.7470  -27.4040    7.1270 O.2    21  GLU21      -0.2715
     67  CB         1.4210  -30.6340    7.3330 C.3    21  GLU21       0.0429
     68  CG         0.3160  -30.5350    8.3670 C.3    21  GLU21       0.1163
     69  CD         0.0190  -31.9260    8.9120 C.2    21  GLU21       0.3649
     70  OE1        0.9470  -32.6900    9.1750 O.co2  21  GLU21      -0.2457
     71  OE2       -1.1350  -32.3130    9.0390 O.co2  21  GLU21      -0.2457
     72  N          3.6390  -28.4970    6.4430 N.am   22  MET22      -0.1963
     73  CA         4.6190  -27.4960    6.8210 C.3    22  MET22       0.1736
     74  C          4.4680  -26.2670    5.9070 C.2    22  MET22       0.2617
     75  O          4.5070  -25.1340    6.3640 O.2    22  MET22      -0.2715
     76  CB         6.0220  -28.0570    6.7840 C.3    22  MET22       0.0427
     77  CG         7.1750  -27.0260    6.8640 C.3    22  MET22       0.0599
     78  SD         7.5270  -26.5910    8.6410 S.3    22  MET22      -0.1393
     79  CE         6.3720  -25.4380    8.9070 C.3    22  MET22       0.0692
     80  N          4.1040  -26.5590    4.6900 N.am   23  THR23      -0.1951
     81  CA         3.7540  -25.5680    3.7150 C.3    23  THR23       0.1897
     82  C          2.5170  -24.8020    4.1590 C.2    23  THR23       0.2313
     83  O          2.5610  -23.5630    4.1160 O.2    23  THR23      -0.2863
     84  CB         3.7030  -26.2690    2.3440 C.3    23  THR23       0.1794
     85  OG1        5.0780  -26.6210    2.0470 O.3    23  THR23      -0.2208
     86  CG2        3.1810  -25.2960    1.2450 C.3    23  THR23       0.0378
     87  N          3.6650  -22.5480    7.1740 N.3    26  LEU26      -0.1245
     88  CA         4.4330  -21.4250    6.8160 C.3    26  LEU26       0.1561
     89  C          3.6210  -20.3420    6.0880 C.2    26  LEU26       0.2260
     90  O          3.7830  -19.1330    6.3920 O.2    26  LEU26      -0.2867
     91  CB         5.6440  -21.9230    5.9880 C.3    26  LEU26       0.0270
     92  CG         6.6830  -22.7780    6.7440 C.3    26  LEU26       0.0019
     93  CD1        7.9120  -23.0070    5.8750 C.3    26  LEU26       0.0001
     94  CD2        7.1170  -22.0830    8.0620 C.3    26  LEU26       0.0001
     95  N          0.5310  -32.1730   12.7730 N.3    88  LYS88      -0.1231
     96  CA         1.5920  -32.7110   13.6170 C.3    88  LYS88       0.1693
     97  C          2.6540  -31.8210   14.2620 C.2    88  LYS88       0.2592
     98  O          3.5480  -32.3880   14.8970 O.2    88  LYS88      -0.2718
     99  CB         2.3750  -33.7290   12.7430 C.3    88  LYS88       0.0285
    100  CG         3.2530  -33.1150   11.6790 C.3    88  LYS88       0.0035
    101  CD         4.2190  -34.1920   11.1710 C.3    88  LYS88       0.0206
    102  CE         3.4720  -35.0870   10.1770 C.3    88  LYS88       0.1093
    103  NZ         3.0470  -34.1920    9.0280 N.3    88  LYS88      -0.1314
    104  N          2.6190  -30.5030   14.0430 N.am   89  TYR89      -0.1976
    105  CA         3.7300  -29.6230   14.3880 C.3    89  TYR89       0.1639
    106  C          3.4470  -28.9430   15.6800 C.2    89  TYR89       0.2290
    107  O          2.3100  -28.6440   15.9790 O.2    89  TYR89      -0.2864
    108  CB         3.9880  -28.5870   13.2550 C.3    89  TYR89       0.0560
    109  CG         4.6250  -29.2960   12.0330 C.ar   89  TYR89      -0.0198
    110  CD1        5.8730  -29.8670   12.1370 C.ar   89  TYR89      -0.0009
    111  CD2        3.9770  -29.4430   10.8600 C.ar   89  TYR89      -0.0009
    112  CE1        6.4220  -30.5360   11.1240 C.ar   89  TYR89       0.0417
    113  CE2        4.5360  -30.1650    9.7820 C.ar   89  TYR89       0.0417
    114  CZ         5.7550  -30.7280    9.9490 C.ar   89  TYR89       0.1957
    115  OH         6.4390  -31.3820    8.9280 O.3    89  TYR89      -0.2866
    116  N          8.3830  -31.1410   15.2990 N.3   116  ARG116     -0.1245
    117  CA         7.5400  -32.2720   14.9800 C.3   116  ARG116      0.1563
    118  C          7.0280  -32.8900   16.2970 C.2   116  ARG116      0.2260
    119  O          7.7620  -33.0200   17.2480 O.2   116  ARG116     -0.2867
    120  CB         8.3880  -33.2490   14.1910 C.3   116  ARG116      0.0307
    121  CG         7.6390  -34.3870   13.5920 C.3   116  ARG116      0.0489
    122  CD         8.5320  -35.4590   12.9920 C.3   116  ARG116      0.2205
    123  NE         9.8110  -34.9580   12.4980 N.pl3 116  ARG116     -0.0865
    124  CZ         9.9490  -34.2260   11.4100 C.cat 116  ARG116      0.5346
    125  NH1        8.8550  -33.9040   10.7220 N.pl3 116  ARG116      0.1354
    126  NH2       11.1660  -33.8460   11.0250 N.pl3 116  ARG116      0.1354
    127  N         12.6610  -28.3990   13.3460 N.3   136  VAL136     -0.1231
    128  CA        12.4650  -28.6130   11.8910 C.3   136  VAL136      0.1692
    129  C         12.6470  -27.3060   11.1230 C.2   136  VAL136      0.2591
    130  O         13.0590  -27.2930    9.9840 O.2   136  VAL136     -0.2718
    131  CB        11.0330  -29.0930   11.5380 C.3   136  VAL136      0.0266
    132  CG1       11.0150  -29.4890   10.0800 C.3   136  VAL136      0.0020
    133  CG2       10.7000  -30.3460   12.3440 C.3   136  VAL136      0.0020
    134  N         12.3650  -26.1790   11.7650 N.am  137  ALA137     -0.1980
    135  CA        12.4920  -24.8640   11.1720 C.3   137  ALA137      0.1597
    136  C         12.3080  -23.8100   12.2640 C.2   137  ALA137      0.2287
    137  O         11.5990  -24.0590   13.2040 O.2   137  ALA137     -0.2864
    138  CB        11.3750  -24.6920   10.1530 C.3   137  ALA137      0.0319
    139  N         14.2900  -17.2250    7.4350 N.3   151  LEU151     -0.1245
    140  CA        13.7590  -18.5750    7.7000 C.3   151  LEU151      0.1561
    141  C         14.8890  -19.6000    7.6120 C.2   151  LEU151      0.2260
    142  O         15.6250  -19.5720    6.6660 O.2   151  LEU151     -0.2867
    143  CB        12.6760  -18.9090    6.6670 C.3   151  LEU151      0.0270
    144  CG        12.2510  -20.3990    6.5270 C.3   151  LEU151      0.0019
    145  CD1       11.5800  -20.8030    7.8150 C.3   151  LEU151      0.0001
    146  CD2       11.3060  -20.6010    5.4110 C.3   151  LEU151      0.0001
    147  N         16.2250  -23.7370    8.0770 N.3   153  MET153     -0.1230
    148  CA        15.7920  -25.1240    8.1460 C.3   153  MET153      0.1702
    149  C         17.0370  -25.9470    7.8430 C.2   153  MET153      0.2592
    150  O         18.1210  -25.3490    7.8930 O.2   153  MET153     -0.2718
    151  CB        14.5580  -25.4120    7.3210 C.3   153  MET153      0.0401
    152  CG        14.2040  -24.5210    6.1550 C.3   153  MET153      0.0596
    153  SD        14.8540  -25.2210    4.5960 S.3   153  MET153     -0.1393
    154  CE        16.5340  -24.7780    4.7460 C.3   153  MET153      0.0692
    155  N         16.9020  -27.2500    7.5680 N.am  154  VAL154     -0.1966
    156  CA        18.0770  -28.0990    7.3810 C.3   154  VAL154      0.1727
    157  C         19.0030  -27.6190    6.2910 C.2   154  VAL154      0.2616
    158  O         20.1760  -27.7980    6.4470 O.2   154  VAL154     -0.2715
    159  CB        17.9590  -29.6190    6.9920 C.3   154  VAL154      0.0290
    160  CG1       18.4110  -30.4430    8.1990 C.3   154  VAL154      0.0023
    161  CG2       16.6720  -30.0840    6.3440 C.3   154  VAL154      0.0023
    162  N         18.5060  -27.0470    5.2150 N.am  155  ASN155     -0.1972
    163  CA        19.4090  -26.6300    4.1470 C.3   155  ASN155      0.1688
    164  C         19.9980  -25.2390    4.3170 C.2   155  ASN155      0.2292
    165  O         20.7140  -24.7820    3.4220 O.2   155  ASN155     -0.2864
    166  CB        18.6810  -26.7080    2.8250 C.3   155  ASN155      0.1181
    167  CG        17.9000  -27.9830    2.7530 C.2   155  ASN155      0.2629
    168  OD1       18.3310  -29.0310    3.2770 O.2   155  ASN155     -0.2716
    169  ND2       16.7210  -27.9020    2.1620 N.am  155  ASN155     -0.0877
@<TRIPOS>BOND
     1     1     2    1
     2    44    43    1
     3    44    45    2
     4    47    45    1
     5    43    42    1
     6    45    46    1
     7     2     5    1
     8     2     3    1
     9    19    20    1
    10    27    25   ar
    11     5     6    1
    12     4     3    2
    13     3    12   am
    14    42    41    1
    15     8     6   ar
    16     8    10   ar
    17     6     7   ar
    18    20    21    1
    19    20    23    1
    20    25    24    1
    21    25    26   ar
    22    12    13    1
    23    30    31    2
    24    30    29    1
    25    10    11   ar
    26    32    33    1
    27    41    38    1
    28    14    15    2
    29    14    13    1
    30    38    37    1
    31    38    39    1
    32    37    34   am
    33    21    28   am
    34    21    22    2
    35    28    29    1
    36    24    23    1
    37    13    16    1
    38     7     9   ar
    39    11     9   ar
    40    33    34    1
    41    33    36    1
    42    86    84    1
    43    34    35    2
    44    51    50    2
    45    39    48   am
    46    39    40    2
    47    48    49    1
    48    18    16    1
    49    85    84    1
    50    16    17    1
    51   169   167   am
    52    84    81    1
    53    55    54    2
    54    50    49    1
    55    50    52   am
    56    60    59    1
    57    60    61    1
    58   167   166    1
    59   167   168    2
    60   166   163    1
    61    54    59   am
    62    54    53    1
    63    53    52    1
    64    53    56    1
    65   165   164    2
    66    81    82    1
    67    81    80    1
    68    62    61    2
    69    61    63   am
    70    83    82    2
    71   163   164    1
    72   163   162    1
    73    56    58    1
    74    56    57    1
    75   153   154    1
    76   153   152    1
    77    80    74   am
    78    63    64    1
    79   162   157   am
    80   146   144    1
    81    93    92    1
    82    74    75    2
    83    74    73    1
    84    91    92    1
    85    91    88    1
    86    89    90    2
    87    89    88    1
    88   152   151    1
    89   157   158    2
    90   157   156    1
    91    64    65    1
    92    64    67    1
    93   161   159    1
    94    72    65   am
    95    72    73    1
    96   144   143    1
    97   144   145    1
    98   142   141    2
    99   143   140    1
   100    65    66    2
   101    92    94    1
   102    76    73    1
   103    76    77    1
   104    88    87    1
   105    77    78    1
   106   159   156    1
   107   159   160    1
   108   151   148    1
   109    67    68    1
   110   156   155    1
   111   139   140    1
   112   155   149   am
   113   141   140    1
   114   149   150    2
   115   149   148    1
   116   147   148    1
   117    68    69    1
   118    78    79    1
   119    69    71   ar
   120    69    70   ar
   121   115   114    1
   122   103   102    1
   123   113   114   ar
   124   113   111   ar
   125   114   112   ar
   126   130   129    2
   127   132   131    1
   128   138   135    1
   129   102   101    1
   130   125   124    1
   131   111   109   ar
   132   126   124    1
   133   129   134   am
   134   129   128    1
   135   112   110   ar
   136   101   100    1
   137   135   134    1
   138   135   136    1
   139   124   123    2
   140   131   128    1
   141   131   133    1
   142   100    99    1
   143   128   127    1
   144   109   110   ar
   145   109   108    1
   146   136   137    2
   147   123   122    1
   148    99    96    1
   149    95    96    1
   150   122   121    1
   151   108   105    1
   152   121   120    1
   153    96    97    1
   154   104    97   am
   155   104   105    1
   156   120   117    1
   157    97    98    2
   158   105   106    1
   159   117   116    1
   160   117   118    1
   161   106   107    2
   162   118   119    2
