@<TRIPOS>MOLECULE
tmp/1lewA00.pdb
 144 139 0 0 0
SMALL
GASTEIGER

@<TRIPOS>ATOM
      1  N         23.3560   35.8730   19.1770 N.3   106  GLY106     -0.1210
      2  CA        23.3770   36.5240   17.8760 C.3   106  GLY106      0.1956
      3  C         24.0140   35.6940   16.7850 C.2   106  GLY106      0.2611
      4  O         23.3320   35.1870   15.8990 O.2   106  GLY106     -0.2717
      5  N         25.3290   35.5520   16.8520 N.am  107  ALA107     -0.1979
      6  CA        26.0570   34.7610   15.8710 C.3   107  ALA107      0.1597
      7  C         27.4350   34.4260   16.4150 C.2   107  ALA107      0.2287
      8  O         27.9250   35.1190   17.2930 O.2   107  ALA107     -0.2864
      9  CB        26.1800   35.5360   14.5660 C.3   107  ALA107      0.0319
     10  N         30.5550   33.5180   11.6340 N.3   111  ASN111     -0.1225
     11  CA        29.5030   34.1900   10.9010 C.3   111  ASN111      0.1785
     12  C         29.6970   35.6990   10.8540 C.2   111  ASN111      0.2597
     13  O         29.1820   36.3630    9.9590 O.2   111  ASN111     -0.2718
     14  CB        28.1460   33.8410   11.5050 C.3   111  ASN111      0.1169
     15  CG        27.8620   32.3610   11.4400 C.2   111  ASN111      0.2627
     16  OD1       27.9460   31.7460   10.3750 O.2   111  ASN111     -0.2716
     17  ND2       27.5330   31.7710   12.5820 N.am  111  ASN111     -0.0877
     18  N         30.4300   36.2460   11.8180 N.am  112  ILE112     -0.1980
     19  CA        30.6970   37.6810   11.8170 C.3   112  ILE112      0.1595
     20  C         31.6820   37.9470   10.6650 C.2   112  ILE112      0.2287
     21  O         31.3950   38.7180    9.7480 O.2   112  ILE112     -0.2864
     22  CB        31.3280   38.1500   13.1560 C.3   112  ILE112      0.0276
     23  CG1       30.3150   38.0050   14.3010 C.3   112  ILE112      0.0022
     24  CG2       31.8180   39.5760   13.0330 C.3   112  ILE112      0.0022
     25  CD1       29.0220   38.8030   14.1200 C.3   112  ILE112      0.0001
     26  N         30.5680   37.9570    7.1780 N.3   115  CYS115     -0.1221
     27  CA        29.7010   39.0890    6.8560 C.3   115  CYS115      0.1808
     28  C         30.3370   40.4130    6.5900 C.2   115  CYS115      0.2601
     29  O         29.7330   41.2650    5.9430 O.2   115  CYS115     -0.2717
     30  CB        28.7640   39.3740    8.0100 C.3   115  CYS115      0.0970
     31  SG        27.2350   38.5880    7.9360 S.3   115  CYS115     -0.0800
     32  N         31.5210   40.6090    7.1470 N.am  116  GLN116     -0.1979
     33  CA        32.1740   41.8900    7.0380 C.3   116  GLN116      0.1601
     34  C         33.6470   41.7890    7.3870 C.2   116  GLN116      0.2287
     35  O         34.0780   40.8190    8.0030 O.2   116  GLN116     -0.2864
     36  CB        31.4900   42.8330    8.0320 C.3   116  GLN116      0.0394
     37  CG        31.7070   42.4030    9.5000 C.3   116  GLN116      0.0908
     38  CD        30.4400   42.4510   10.3670 C.2   116  GLN116      0.2608
     39  OE1       30.0330   43.5170   10.8300 O.2   116  GLN116     -0.2717
     40  NE2       29.8240   41.2950   10.5910 N.am  116  GLN116     -0.0878
     41  N         36.5860   43.1270    9.6270 N.3   118  LEU118     -0.1245
     42  CA        36.7120   43.7650   10.9310 C.3   118  LEU118      0.1561
     43  C         37.8510   44.7930   10.9630 C.2   118  LEU118      0.2260
     44  O         38.8590   44.6390   10.2600 O.2   118  LEU118     -0.2867
     45  CB        36.9700   42.6890   11.9940 C.3   118  LEU118      0.0270
     46  CG        35.8510   41.6790   12.2740 C.3   118  LEU118      0.0019
     47  CD1       35.3930   41.0330   10.9780 C.3   118  LEU118      0.0001
     48  CD2       36.3480   40.6150   13.2610 C.3   118  LEU118      0.0001
     49  N         40.1770   47.8400   15.5330 N.3   121  ASP121     -0.1225
     50  CA        39.4360   48.1650   16.7440 C.3   121  ASP121      0.1805
     51  C         38.5990   46.9690   17.1950 C.2   121  ASP121      0.2597
     52  O         38.6450   46.5830   18.3560 O.2   121  ASP121     -0.2718
     53  CB        38.5150   49.3600   16.5150 C.3   121  ASP121      0.1424
     54  CG        39.2720   50.6390   16.2240 C.2   121  ASP121      0.3668
     55  OD1       40.1000   51.0610   17.0700 O.co2 121  ASP121     -0.2456
     56  OD2       39.0310   51.2210   15.1360 O.co2 121  ASP121     -0.2456
     57  N         37.8370   46.3940   16.2660 N.am  122  HIS122     -0.1975
     58  CA        36.9800   45.2440   16.5650 C.3   122  HIS122      0.1656
     59  C         37.7640   44.0970   17.1720 C.2   122  HIS122      0.2291
     60  O         37.3110   43.4730   18.1380 O.2   122  HIS122     -0.2864
     61  CB        36.2790   44.7150   15.3040 C.3   122  HIS122      0.0771
     62  CG        35.2750   45.6560   14.7250 C.ar  122  HIS122      0.0820
     63  ND1       35.5430   46.4490   13.6350 N.ar  122  HIS122     -0.2267
     64  CD2       34.0000   45.9290   15.0920 C.ar  122  HIS122      0.1154
     65  CE1       34.4740   47.1760   13.3550 C.ar  122  HIS122      0.1986
     66  NE2       33.5270   46.8790   14.2230 N.ar  122  HIS122     -0.2212
     67  N         38.7430   44.8950   20.8430 N.3   125  PHE125     -0.1227
     68  CA        37.5960   44.6930   21.7200 C.3   125  PHE125      0.1736
     69  C         37.2030   43.2070   21.8470 C.2   125  PHE125      0.2595
     70  O         36.9470   42.7200   22.9410 O.2   125  PHE125     -0.2718
     71  CB        36.4090   45.5400   21.2290 C.3   125  PHE125      0.0547
     72  CG        35.2120   45.5080   22.1490 C.ar  125  PHE125     -0.0202
     73  CD1       35.3720   45.5790   23.5300 C.ar  125  PHE125     -0.0042
     74  CD2       33.9240   45.4180   21.6310 C.ar  125  PHE125     -0.0042
     75  CE1       34.2570   45.5580   24.3850 C.ar  125  PHE125     -0.0003
     76  CE2       32.8030   45.3970   22.4710 C.ar  125  PHE125     -0.0003
     77  CZ        32.9680   45.4680   23.8500 C.ar  125  PHE125     -0.0000
     78  N         37.1770   42.4900   20.7260 N.am  126  LEU126     -0.1980
     79  CA        36.8420   41.0670   20.7200 C.3   126  LEU126      0.1596
     80  C         37.8220   40.2110   21.5240 C.2   126  LEU126      0.2287
     81  O         37.4080   39.4450   22.3860 O.2   126  LEU126     -0.2864
     82  CB        36.7640   40.5490   19.2780 C.3   126  LEU126      0.0297
     83  CG        35.5470   41.0010   18.4600 C.3   126  LEU126      0.0022
     84  CD1       35.8680   40.9200   16.9830 C.3   126  LEU126      0.0001
     85  CD2       34.3460   40.1440   18.7940 C.3   126  LEU126      0.0001
     86  N         28.7980   36.5440   19.3410 N.3   154  VAL154     -0.1231
     87  CA        28.9800   37.9940   19.3010 C.3   154  VAL154      0.1692
     88  C         27.6760   38.6960   18.9310 C.2   154  VAL154      0.2592
     89  O         26.9860   38.2630   18.0110 O.2   154  VAL154     -0.2718
     90  CB        30.0670   38.3830   18.2580 C.3   154  VAL154      0.0266
     91  CG1       30.2730   39.8900   18.2500 C.3   154  VAL154      0.0020
     92  CG2       31.3730   37.6440   18.5650 C.3   154  VAL154      0.0020
     93  N         27.3220   39.7610   19.6500 N.am  155  ASN155     -0.1960
     94  CA        26.1010   40.4850   19.3130 C.3   155  ASN155      0.1819
     95  C         26.4020   41.7310   18.4860 C.2   155  ASN155      0.2621
     96  O         27.5580   42.0400   18.2050 O.2   155  ASN155     -0.2715
     97  CB        25.2520   40.8390   20.5640 C.3   155  ASN155      0.1195
     98  CG        25.8870   41.9070   21.4670 C.2   155  ASN155      0.2630
     99  OD1       26.6980   42.7310   21.0350 O.2   155  ASN155     -0.2716
    100  ND2       25.4730   41.9100   22.7340 N.am  155  ASN155     -0.0877
    101  N         25.3380   42.4240   18.1000 N.am  156  GLU156     -0.1963
    102  CA        25.4050   43.6230   17.2700 C.3   156  GLU156      0.1733
    103  C         26.3280   44.7160   17.8130 C.2   156  GLU156      0.2616
    104  O         26.8740   45.5050   17.0350 O.2   156  GLU156     -0.2715
    105  CB        23.9890   44.1920   17.0780 C.3   156  GLU156      0.0429
    106  CG        23.6520   44.5810   15.6450 C.3   156  GLU156      0.1163
    107  CD        22.6640   43.6190   14.9730 C.2   156  GLU156      0.3649
    108  OE1       21.6390   43.2630   15.6020 O.co2 156  GLU156     -0.2457
    109  OE2       22.9030   43.2340   13.8040 O.co2 156  GLU156     -0.2457
    110  N         26.4910   44.7720   19.1330 N.am  157  ASP157     -0.1957
    111  CA        27.3550   45.7720   19.7500 C.3   157  ASP157      0.1840
    112  C         28.7800   45.2360   19.8850 C.2   157  ASP157      0.2622
    113  O         29.6010   45.7870   20.6120 O.2   157  ASP157     -0.2715
    114  CB        26.8270   46.1740   21.1310 C.3   157  ASP157      0.1450
    115  CG        25.4620   46.8410   21.0710 C.2   157  ASP157      0.3671
    116  OD1       25.3200   47.8540   20.3580 O.co2 157  ASP157     -0.2456
    117  OD2       24.5280   46.3550   21.7480 O.co2 157  ASP157     -0.2456
    118  N         29.0570   44.1400   19.1900 N.am  158  CYS158     -0.1954
    119  CA        30.3810   43.5310   19.2120 C.3   158  CYS158      0.1843
    120  C         30.7020   42.9040   20.5790 C.2   158  CYS158      0.2625
    121  O         31.8530   42.5610   20.8590 O.2   158  CYS158     -0.2714
    122  CB        31.4450   44.5840   18.8290 C.3   158  CYS158      0.0997
    123  SG        33.0690   43.9210   18.3220 S.3   158  CYS158     -0.0797
    124  N         29.6860   42.7470   21.4250 N.am  159  GLU159     -0.1977
    125  CA        29.9000   42.1450   22.7400 C.3   159  GLU159      0.1602
    126  C         30.0590   40.6410   22.5480 C.2   159  GLU159      0.2287
    127  O         29.4350   40.0610   21.6660 O.2   159  GLU159     -0.2864
    128  CB        28.7270   42.4590   23.6650 C.3   159  GLU159      0.0415
    129  CG        28.4270   43.9440   23.7460 C.3   159  GLU159      0.1163
    130  CD        27.3150   44.2730   24.7330 C.2   159  GLU159      0.3649
    131  OE1       26.4130   43.4290   24.9320 O.co2 159  GLU159     -0.2457
    132  OE2       27.3330   45.3870   25.2980 O.co2 159  GLU159     -0.2457
    133  N         40.6740   49.5190   26.4460 N.3   298  TYR298     -0.1241
    134  CA        39.5800   48.7670   27.0790 C.3   298  TYR298      0.1605
    135  C         39.8990   48.2520   28.4780 C.2   298  TYR298      0.2264
    136  O         39.0040   47.9090   29.2460 O.2   298  TYR298     -0.2867
    137  CB        39.1820   47.5730   26.2040 C.3   298  TYR298      0.0534
    138  CG        38.7140   47.9540   24.8180 C.ar  298  TYR298     -0.0201
    139  CD1       37.5440   48.6830   24.6390 C.ar  298  TYR298     -0.0009
    140  CD2       39.4580   47.6150   23.6890 C.ar  298  TYR298     -0.0009
    141  CE1       37.1280   49.0760   23.3730 C.ar  298  TYR298      0.0417
    142  CE2       39.0510   48.0040   22.4140 C.ar  298  TYR298      0.0417
    143  CZ        37.8820   48.7370   22.2650 C.ar  298  TYR298      0.1957
    144  OH        37.4730   49.1480   21.0130 O.3   298  TYR298     -0.2866
@<TRIPOS>BOND
     1    29    28    2
     2    28    27    1
     3    28    32   am
     4    27    26    1
     5    27    30    1
     6    33    32    1
     7    33    34    1
     8    33    36    1
     9    34    35    2
    10    31    30    1
    11    36    37    1
    12    37    38    1
    13    41    42    1
    14    21    20    2
    15    13    12    2
    16    44    43    2
    17    38    40   am
    18    38    39    2
    19    16    15    2
    20    20    19    1
    21    12    11    1
    22    12    18   am
    23    11    14    1
    24    11    10    1
    25    42    43    1
    26    42    45    1
    27    47    46    1
    28    15    14    1
    29    15    17   am
    30    19    18    1
    31    19    22    1
    32    45    46    1
    33    46    48    1
    34    24    22    1
    35    22    23    1
    36    65    63   ar
    37    65    66   ar
    38    63    62   ar
    39   109   107   ar
    40    25    23    1
    41    66    64   ar
    42     9     6    1
    43    62    64   ar
    44    62    61    1
    45   107   108   ar
    46   107   106    1
    47    56    54   ar
    48    61    58    1
    49    49    50    1
    50   106   105    1
    51     6     7    1
    52     6     5    1
    53     4     3    2
    54    54    53    1
    55    54    55   ar
    56    57    58    1
    57    57    51   am
    58     7     8    2
    59    53    50    1
    60    58    59    1
    61    50    51    1
    62     3     5   am
    63     3     2    1
    64    84    83    1
    65   104   103    2
    66   105   102    1
    67    59    60    2
    68    51    52    2
    69   102   103    1
    70   102   101    1
    71   103   110   am
    72     2     1    1
    73    89    88    2
    74   101    95   am
    75    96    95    2
    76    91    90    1
    77    90    92    1
    78    90    87    1
    79   123   122    1
    80    83    85    1
    81    83    82    1
    82    95    94    1
    83   122   119    1
    84    88    87    1
    85    88    93   am
    86   110   111    1
    87   118   119    1
    88   118   112   am
    89   119   120    1
    90    82    79    1
    91    87    86    1
    92    94    93    1
    93    94    97    1
    94   111   112    1
    95   111   114    1
    96   112   113    2
    97   116   115   ar
    98    97    98    1
    99   120   121    2
   100   120   124   am
   101    79    78    1
   102    79    80    1
   103    78    69   am
   104    67    68    1
   105   144   143    1
   106    99    98    2
   107   115   114    1
   108   115   117   ar
   109    71    68    1
   110    71    72    1
   111   124   125    1
   112    98   100   am
   113    80    81    2
   114    74    72   ar
   115    74    76   ar
   116   127   126    2
   117    68    69    1
   118    69    70    2
   119    72    73   ar
   120   143   142   ar
   121   143   141   ar
   122   142   140   ar
   123    76    77   ar
   124   126   125    1
   125   125   128    1
   126   141   139   ar
   127    73    75   ar
   128   128   129    1
   129   140   138   ar
   130   129   130    1
   131    77    75   ar
   132   139   138   ar
   133   130   131   ar
   134   130   132   ar
   135   138   137    1
   136   137   134    1
   137   133   134    1
   138   134   135    1
   139   135   136    2
