@<TRIPOS>MOLECULE
tmp/1lezA00.pdb
 144 139 0 0 0
SMALL
GASTEIGER

@<TRIPOS>ATOM
      1  N         23.6300   34.2730   18.1270 N.3   107  GLY107     -0.1210
      2  CA        23.2430   34.8620   16.8600 C.3   107  GLY107      0.1956
      3  C         24.3380   34.3940   15.9240 C.2   107  GLY107      0.2611
      4  O         24.1630   33.4120   15.2010 O.2   107  GLY107     -0.2717
      5  N         25.4860   35.0640   15.9480 N.am  108  ALA108     -0.1979
      6  CA        26.5790   34.6260   15.0950 C.3   108  ALA108      0.1597
      7  C         27.7990   34.2760   15.9110 C.2   108  ALA108      0.2287
      8  O         27.9320   34.7000   17.0620 O.2   108  ALA108     -0.2864
      9  CB        26.9420   35.6850   14.0960 C.3   108  ALA108      0.0319
     10  N         31.0660   33.7580   11.3920 N.3   112  ASN112     -0.1225
     11  CA        29.9960   34.5100   10.7620 C.3   112  ASN112      0.1785
     12  C         30.3620   35.9810   10.6740 C.2   112  ASN112      0.2597
     13  O         30.0890   36.6360    9.6760 O.2   112  ASN112     -0.2718
     14  CB        28.6880   34.3890   11.5460 C.3   112  ASN112      0.1169
     15  CG        28.0030   33.0510   11.3430 C.2   112  ASN112      0.2627
     16  OD1       27.7570   32.6300   10.2020 O.2   112  ASN112     -0.2716
     17  ND2       27.6820   32.3760   12.4480 N.am  112  ASN112     -0.0877
     18  N         30.9600   36.5140   11.7280 N.am  113  ILE113     -0.1980
     19  CA        31.3390   37.9110   11.7050 C.3   113  ILE113      0.1595
     20  C         32.3510   38.1880   10.5890 C.2   113  ILE113      0.2287
     21  O         32.1960   39.1270    9.8070 O.2   113  ILE113     -0.2864
     22  CB        31.9330   38.3260   13.0450 C.3   113  ILE113      0.0276
     23  CG1       30.8810   38.1470   14.1370 C.3   113  ILE113      0.0022
     24  CG2       32.4450   39.7590   12.9710 C.3   113  ILE113      0.0022
     25  CD1       29.6100   38.9280   13.9040 C.3   113  ILE113      0.0001
     26  N         32.7380   36.5800    8.0150 N.3   115  LYS115     -0.1231
     27  CA        32.0980   36.3830    6.7270 C.3   115  LYS115      0.1693
     28  C         31.2930   37.5970    6.2170 C.2   115  LYS115      0.2592
     29  O         31.2650   37.8600    5.0100 O.2   115  LYS115     -0.2718
     30  CB        31.1850   35.1560    6.7820 C.3   115  LYS115      0.0285
     31  CG        31.5370   34.0860    5.7620 C.3   115  LYS115      0.0035
     32  CD        32.4740   33.0110    6.3290 C.3   115  LYS115      0.0206
     33  CE        31.6620   31.8460    6.9480 C.3   115  LYS115      0.1093
     34  NZ        32.0850   30.5140    6.3760 N.3   115  LYS115     -0.1314
     35  N         30.6540   38.3410    7.1180 N.am  116  CYS116     -0.1956
     36  CA        29.8430   39.4840    6.6940 C.3   116  CYS116      0.1843
     37  C         30.5270   40.8660    6.6440 C.2   116  CYS116      0.2625
     38  O         29.9210   41.8250    6.1550 O.2   116  CYS116     -0.2714
     39  CB        28.5290   39.5010    7.5210 C.3   116  CYS116      0.0997
     40  SG        27.9150   37.7770    7.5170 S.3   116  CYS116     -0.0797
     41  N         31.7860   40.9580    7.0790 N.am  117  GLN117     -0.1977
     42  CA        32.5060   42.2310    7.0330 C.3   117  GLN117      0.1601
     43  C         34.0070   42.1210    7.2870 C.2   117  GLN117      0.2287
     44  O         34.5030   41.1000    7.7360 O.2   117  GLN117     -0.2864
     45  CB        31.9350   43.2230    8.0340 C.3   117  GLN117      0.0394
     46  CG        32.0260   42.8240    9.4780 C.3   117  GLN117      0.0908
     47  CD        30.6280   42.5570   10.0610 C.2   117  GLN117      0.2608
     48  OE1       30.1190   41.4120   10.1410 O.2   117  GLN117     -0.2717
     49  NE2       29.9820   43.6450   10.4390 N.am  117  GLN117     -0.0878
     50  N         37.0360   43.2050    9.4630 N.3   119  LEU119     -0.1245
     51  CA        37.2690   43.7630   10.7910 C.3   119  LEU119      0.1561
     52  C         38.4200   44.7510   10.7620 C.2   119  LEU119      0.2260
     53  O         39.3770   44.5740   10.0100 O.2   119  LEU119     -0.2867
     54  CB        37.5900   42.6490   11.8050 C.3   119  LEU119      0.0270
     55  CG        36.5380   41.5670   12.0950 C.3   119  LEU119      0.0019
     56  CD1       36.2060   40.8080   10.8120 C.3   119  LEU119      0.0001
     57  CD2       37.0560   40.6030   13.1640 C.3   119  LEU119      0.0001
     58  N         40.7010   47.7810   15.3530 N.3   122  ASP122     -0.1225
     59  CA        39.9910   48.1500   16.5710 C.3   122  ASP122      0.1805
     60  C         39.0750   46.9810   16.9620 C.2   122  ASP122      0.2597
     61  O         38.9980   46.6020   18.1280 O.2   122  ASP122     -0.2718
     62  CB        39.1690   49.4220   16.3280 C.3   122  ASP122      0.1424
     63  CG        38.1080   49.6460   17.4000 C.2   122  ASP122      0.3668
     64  OD1       36.9220   49.8510   17.0410 O.co2 122  ASP122     -0.2456
     65  OD2       38.4520   49.6160   18.6060 O.co2 122  ASP122     -0.2456
     66  N         38.3800   46.4220   15.9750 N.am  123  HIS123     -0.1975
     67  CA        37.4910   45.2850   16.1860 C.3   123  HIS123      0.1656
     68  C         38.2720   44.1310   16.8170 C.2   123  HIS123      0.2291
     69  O         37.8440   43.5490   17.8080 O.2   123  HIS123     -0.2864
     70  CB        36.9070   44.8320   14.8430 C.3   123  HIS123      0.0771
     71  CG        35.8210   45.7210   14.3240 C.ar  123  HIS123      0.0820
     72  ND1       35.5730   45.8890   12.9780 N.ar  123  HIS123     -0.2267
     73  CD2       34.8860   46.4540   14.9730 C.ar  123  HIS123      0.1154
     74  CE1       34.5300   46.6850   12.8220 C.ar  123  HIS123      0.1986
     75  NE2       34.0950   47.0420   14.0180 N.ar  123  HIS123     -0.2212
     76  N         39.1240   44.7810   20.6260 N.3   126  PHE126     -0.1227
     77  CA        37.9680   44.5520   21.4790 C.3   126  PHE126      0.1736
     78  C         37.6070   43.0760   21.6020 C.2   126  PHE126      0.2595
     79  O         37.3820   42.5780   22.7030 O.2   126  PHE126     -0.2718
     80  CB        36.7810   45.3500   20.9360 C.3   126  PHE126      0.0547
     81  CG        35.5720   45.3050   21.8100 C.ar  126  PHE126     -0.0202
     82  CD1       35.6870   45.4860   23.1870 C.ar  126  PHE126     -0.0042
     83  CD2       34.3080   45.1230   21.2560 C.ar  126  PHE126     -0.0042
     84  CE1       34.5560   45.4880   24.0080 C.ar  126  PHE126     -0.0003
     85  CE2       33.1570   45.1230   22.0620 C.ar  126  PHE126     -0.0003
     86  CZ        33.2800   45.3070   23.4430 C.ar  126  PHE126     -0.0000
     87  N         37.5780   42.3810   20.4690 N.am  127  LEU127     -0.1980
     88  CA        37.2380   40.9690   20.4540 C.3   127  LEU127      0.1596
     89  C         38.2020   40.1250   21.2700 C.2   127  LEU127      0.2287
     90  O         37.7790   39.3900   22.1550 O.2   127  LEU127     -0.2864
     91  CB        37.1600   40.4540   19.0130 C.3   127  LEU127      0.0297
     92  CG        35.9530   40.9230   18.1840 C.3   127  LEU127      0.0022
     93  CD1       36.0520   40.4050   16.7620 C.3   127  LEU127      0.0001
     94  CD2       34.6730   40.4410   18.8220 C.3   127  LEU127      0.0001
     95  N         29.2210   36.3430   19.0590 N.3   155  VAL155     -0.1231
     96  CA        29.4160   37.7850   18.9220 C.3   155  VAL155      0.1692
     97  C         28.1310   38.4580   18.4160 C.2   155  VAL155      0.2592
     98  O         27.4290   37.9090   17.5670 O.2   155  VAL155     -0.2718
     99  CB        30.5820   38.0940   17.9370 C.3   155  VAL155      0.0266
    100  CG1       30.7290   39.5870   17.7360 C.3   155  VAL155      0.0020
    101  CG2       31.8760   37.4920   18.4600 C.3   155  VAL155      0.0020
    102  N         27.8240   39.6440   18.9370 N.am  156  ASN156     -0.1960
    103  CA        26.6100   40.3430   18.5130 C.3   156  ASN156      0.1819
    104  C         26.8810   41.6580   17.7790 C.2   156  ASN156      0.2621
    105  O         28.0340   42.0070   17.5410 O.2   156  ASN156     -0.2715
    106  CB        25.6780   40.5870   19.7090 C.3   156  ASN156      0.1195
    107  CG        26.2430   41.5630   20.7020 C.2   156  ASN156      0.2630
    108  OD1       27.0300   42.4440   20.3530 O.2   156  ASN156     -0.2716
    109  ND2       25.8150   41.4370   21.9530 N.am  156  ASN156     -0.0877
    110  N         25.8160   42.3810   17.4300 N.am  157  GLU157     -0.1963
    111  CA        25.9300   43.6340   16.6940 C.3   157  GLU157      0.1733
    112  C         26.8280   44.6690   17.3360 C.2   157  GLU157      0.2616
    113  O         27.4160   45.4920   16.6320 O.2   157  GLU157     -0.2715
    114  CB        24.5550   44.2580   16.4590 C.3   157  GLU157      0.0429
    115  CG        23.6790   43.4800   15.5090 C.3   157  GLU157      0.1163
    116  CD        22.8360   42.4420   16.2090 C.2   157  GLU157      0.3649
    117  OE1       22.0760   41.7380   15.5050 O.co2 157  GLU157     -0.2457
    118  OE2       22.9240   42.3210   17.4550 O.co2 157  GLU157     -0.2457
    119  N         26.9280   44.6440   18.6620 N.am  158  ASP158     -0.1957
    120  CA        27.7770   45.6020   19.3650 C.3   158  ASP158      0.1840
    121  C         29.1510   45.0220   19.6700 C.2   158  ASP158      0.2622
    122  O         29.8640   45.5360   20.5290 O.2   158  ASP158     -0.2715
    123  CB        27.1160   46.0490   20.6740 C.3   158  ASP158      0.1450
    124  CG        25.8460   46.8270   20.4350 C.2   158  ASP158      0.3671
    125  OD1       25.9230   47.9680   19.9270 O.co2 158  ASP158     -0.2456
    126  OD2       24.7650   46.2900   20.7360 O.co2 158  ASP158     -0.2456
    127  N         29.5220   43.9540   18.9720 N.am  159  CYS159     -0.1968
    128  CA        30.8230   43.3180   19.1800 C.3   159  CYS159      0.1712
    129  C         31.0480   42.7210   20.5620 C.2   159  CYS159      0.2296
    130  O         32.1860   42.5270   20.9730 O.2   159  CYS159     -0.2864
    131  CB        31.9320   44.3230   18.9090 C.3   159  CYS159      0.0983
    132  SG        31.9160   44.9640   17.2210 S.3   159  CYS159     -0.0798
    133  N         41.1130   49.5460   26.1330 N.3   301  TYR301     -0.1241
    134  CA        40.0170   48.7760   26.7220 C.3   301  TYR301      0.1605
    135  C         40.2940   48.2610   28.1210 C.2   301  TYR301      0.2264
    136  O         39.3780   48.0590   28.9190 O.2   301  TYR301     -0.2867
    137  CB        39.6950   47.5740   25.8370 C.3   301  TYR301      0.0534
    138  CG        39.1280   47.9300   24.4890 C.ar  301  TYR301     -0.0201
    139  CD1       37.9230   48.6170   24.3790 C.ar  301  TYR301     -0.0009
    140  CD2       39.7910   47.5650   23.3180 C.ar  301  TYR301     -0.0009
    141  CE1       37.3900   48.9280   23.1430 C.ar  301  TYR301      0.0417
    142  CE2       39.2710   47.8730   22.0700 C.ar  301  TYR301      0.0417
    143  CZ        38.0660   48.5560   21.9860 C.ar  301  TYR301      0.1957
    144  OH        37.5150   48.8700   20.7640 O.3   301  TYR301     -0.2866
@<TRIPOS>BOND
     1    29    28    2
     2    31    32    1
     3    31    30    1
     4    38    37    2
     5    28    27    1
     6    28    35   am
     7    32    33    1
     8    34    33    1
     9    37    36    1
    10    37    41   am
    11    36    35    1
    12    36    39    1
    13    27    30    1
    14    27    26    1
    15    42    41    1
    16    42    43    1
    17    42    45    1
    18    43    44    2
    19    40    39    1
    20    45    46    1
    21    50    51    1
    22    46    47    1
    23    13    12    2
    24    21    20    2
    25    53    52    2
    26    47    48    2
    27    47    49   am
    28    16    15    2
    29    20    19    1
    30    12    11    1
    31    12    18   am
    32    11    10    1
    33    11    14    1
    34    52    51    1
    35    51    54    1
    36    56    55    1
    37    15    14    1
    38    15    17   am
    39    19    18    1
    40    19    22    1
    41    54    55    1
    42    55    57    1
    43    74    72   ar
    44    74    75   ar
    45    24    22    1
    46    72    71   ar
    47    22    23    1
    48    25    23    1
    49    75    73   ar
    50     9     6    1
    51    71    70    1
    52    71    73   ar
    53    70    67    1
    54     6     7    1
    55     6     5    1
    56     4     3    2
    57    58    59    1
    58   117   116   ar
    59   115   116    1
    60   115   114    1
    61     7     8    2
    62     3     5   am
    63     3     2    1
    64    66    67    1
    65    66    60   am
    66    67    68    1
    67   116   118   ar
    68    62    59    1
    69    62    63    1
    70   114   111    1
    71    59    60    1
    72   113   112    2
    73   111   112    1
    74   111   110    1
    75    93    92    1
    76    68    69    2
    77     2     1    1
    78    60    61    2
    79    64    63   ar
    80   132   131    1
    81   112   119   am
    82    63    65   ar
    83   110   104   am
    84   105   104    2
    85    98    97    2
    86   100    99    1
    87   104   103    1
    88    99   101    1
    89    99    96    1
    90    92    94    1
    91    92    91    1
    92    97    96    1
    93    97   102   am
    94   103   102    1
    95   103   106    1
    96   119   120    1
    97   131   128    1
    98    96    95    1
    99   127   128    1
   100   127   121   am
   101    91    88    1
   102   128   129    1
   103   120   121    1
   104   120   123    1
   105   121   122    2
   106   106   107    1
   107   125   124   ar
   108   108   107    2
   109   124   123    1
   110   124   126   ar
   111    88    87    1
   112    88    89    1
   113    87    78   am
   114   129   130    2
   115    76    77    1
   116   107   109   am
   117   144   143    1
   118    80    77    1
   119    80    81    1
   120    83    81   ar
   121    83    85   ar
   122    89    90    2
   123    77    78    1
   124    78    79    2
   125    81    82   ar
   126   143   142   ar
   127   143   141   ar
   128    85    86   ar
   129   142   140   ar
   130   141   139   ar
   131    82    84   ar
   132   140   138   ar
   133    86    84   ar
   134   139   138   ar
   135   138   137    1
   136   137   134    1
   137   133   134    1
   138   134   135    1
   139   135   136    2
