@<TRIPOS>MOLECULE
tmp/1lf7A00.pdb
 117 107 0 0 0
SMALL
GASTEIGER

@<TRIPOS>ATOM
      1  N         22.1650   40.1660   25.6020 N.3    24  LEU24      -0.1245
      2  CA        21.4770   39.3480   26.5940 C.3    24  LEU24       0.1561
      3  C         20.8360   40.2760   27.6190 C.2    24  LEU24       0.2260
      4  O         21.5130   41.1020   28.2330 O.2    24  LEU24      -0.2867
      5  CB        22.4560   38.3970   27.2860 C.3    24  LEU24       0.0270
      6  CG        21.8570   37.5110   28.3880 C.3    24  LEU24       0.0019
      7  CD1       20.7330   36.6470   27.8420 C.3    24  LEU24       0.0001
      8  CD2       22.9540   36.6450   28.9760 C.3    24  LEU24       0.0001
      9  N         17.7650   36.1400   32.1510 N.3    27  VAL27      -0.1245
     10  CA        17.7130   34.6890   32.1300 C.3    27  VAL27       0.1561
     11  C         16.8320   34.1840   33.2650 C.2    27  VAL27       0.2260
     12  O         17.0110   34.5770   34.4180 O.2    27  VAL27      -0.2867
     13  CB        19.1160   34.0750   32.3210 C.3    27  VAL27       0.0252
     14  CG1       19.0270   32.5540   32.3200 C.3    27  VAL27       0.0019
     15  CG2       20.0570   34.5600   31.2220 C.3    27  VAL27       0.0019
     16  N         16.0200   31.0120   35.3400 N.3    29  SER29      -0.1217
     17  CA        16.5870   29.6960   35.6100 C.3    29  SER29       0.1889
     18  C         16.5400   29.3540   37.0910 C.2    29  SER29       0.2288
     19  O         16.6250   30.2400   37.9370 O.2    29  SER29      -0.2866
     20  CB        18.0400   29.6580   35.1300 C.3    29  SER29       0.2089
     21  OG        18.6840   28.4660   35.5410 O.3    29  SER29      -0.2183
     22  N         21.8550   27.3120   40.1320 N.3    32  ARG32      -0.1245
     23  CA        22.6730   28.2270   40.9220 C.3    32  ARG32       0.1563
     24  C         21.8130   29.1260   41.8070 C.2    32  ARG32       0.2260
     25  O         20.7030   28.7560   42.1940 O.2    32  ARG32      -0.2867
     26  CB        23.5340   29.0860   39.9920 C.3    32  ARG32       0.0307
     27  CG        24.3920   30.1180   40.7020 C.3    32  ARG32       0.0489
     28  CD        25.1330   30.9870   39.6980 C.3    32  ARG32       0.2205
     29  NE        24.2140   31.6540   38.7780 N.pl3  32  ARG32      -0.0865
     30  CZ        23.2940   32.5410   39.1470 C.cat  32  ARG32       0.5346
     31  NH1       22.5020   33.0950   38.2380 N.pl3  32  ARG32       0.1354
     32  NH2       23.1670   32.8790   40.4230 N.pl3  32  ARG32       0.1354
     33  N         26.7330   41.0190   28.2730 N.3    37  THR37      -0.1218
     34  CA        26.8920   39.9880   27.2590 C.3    37  THR37       0.1862
     35  C         26.3090   40.3200   25.8840 C.2    37  THR37       0.2287
     36  O         25.1320   40.6710   25.7540 O.2    37  THR37      -0.2866
     37  CB        26.2690   38.6950   27.8040 C.3    37  THR37       0.1770
     38  OG1       26.8950   38.3740   29.0510 O.3    37  THR37      -0.2211
     39  CG2       26.4510   37.5410   26.8390 C.3    37  THR37       0.0375
     40  N         30.2870   34.8260   21.6770 N.3    52  THR52      -0.1218
     41  CA        29.7470   35.5640   22.8060 C.3    52  THR52       0.1862
     42  C         30.8630   36.3840   23.4370 C.2    52  THR52       0.2287
     43  O         31.9490   35.8630   23.7170 O.2    52  THR52      -0.2866
     44  CB        29.1480   34.6130   23.8540 C.3    52  THR52       0.1770
     45  OG1       28.1260   33.8160   23.2400 O.3    52  THR52      -0.2211
     46  CG2       28.5340   35.4030   25.0080 C.3    52  THR52       0.0375
     47  N         31.8860   38.8460   26.6100 N.3    54  ARG54      -0.1245
     48  CA        31.5300   39.2130   27.9730 C.3    54  ARG54       0.1563
     49  C         32.5580   40.1540   28.5730 C.2    54  ARG54       0.2260
     50  O         33.7630   39.9400   28.4410 O.2    54  ARG54      -0.2867
     51  CB        31.4230   37.9610   28.8470 C.3    54  ARG54       0.0307
     52  CG        30.3550   36.9680   28.4010 C.3    54  ARG54       0.0489
     53  CD        30.3110   35.7570   29.3240 C.3    54  ARG54       0.2205
     54  NE        29.2200   34.8410   28.9910 N.pl3  54  ARG54      -0.0865
     55  CZ        29.2640   33.9290   28.0220 C.cat  54  ARG54       0.5346
     56  NH1       30.3520   33.7950   27.2750 N.pl3  54  ARG54       0.1354
     57  NH2       28.2130   33.1470   27.8000 N.pl3  54  ARG54       0.1354
     58  N         20.0350   22.0500   30.0660 N.3   106  ARG106     -0.1245
     59  CA        21.3310   21.5320   30.4840 C.3   106  ARG106      0.1563
     60  C         21.0730   20.5700   31.6380 C.2   106  ARG106      0.2260
     61  O         20.4180   20.9320   32.6150 O.2   106  ARG106     -0.2867
     62  CB        22.2450   22.6540   30.9870 C.3   106  ARG106      0.0307
     63  CG        22.4440   23.8390   30.0560 C.3   106  ARG106      0.0489
     64  CD        23.5920   24.7070   30.5750 C.3   106  ARG106      0.2205
     65  NE        23.7370   25.9760   29.8620 N.pl3 106  ARG106     -0.0865
     66  CZ        22.9090   27.0080   29.9920 C.cat 106  ARG106      0.5346
     67  NH1       21.8690   26.9270   30.8120 N.pl3 106  ARG106      0.1354
     68  NH2       23.1240   28.1240   29.3090 N.pl3 106  ARG106      0.1354
     69  N         15.8160   26.4530   31.0620 N.3   111  SER111     -0.1217
     70  CA        15.9880   27.8690   31.3590 C.3   111  SER111      0.1889
     71  C         15.4720   28.6620   30.1640 C.2   111  SER111      0.2288
     72  O         15.3460   28.1270   29.0620 O.2   111  SER111     -0.2866
     73  CB        17.4610   28.1940   31.6130 C.3   111  SER111      0.2089
     74  OG        18.2700   27.8400   30.5040 O.3   111  SER111     -0.2183
     75  N         15.8300   32.4950   28.0670 N.3   113  LYS113     -0.1245
     76  CA        16.6410   33.6950   27.9030 C.3   113  LYS113      0.1561
     77  C         16.0160   34.7030   26.9580 C.2   113  LYS113      0.2260
     78  O         15.4490   34.3350   25.9290 O.2   113  LYS113     -0.2867
     79  CB        18.0310   33.3210   27.3840 C.3   113  LYS113      0.0271
     80  CG        18.7640   32.3280   28.2700 C.3   113  LYS113      0.0035
     81  CD        20.1940   32.0960   27.8080 C.3   113  LYS113      0.0206
     82  CE        20.9160   31.1790   28.7830 C.3   113  LYS113      0.1093
     83  NZ        22.3260   30.9190   28.3810 N.3   113  LYS113     -0.1314
     84  N         16.7700   38.0210   24.6090 N.3   115  TYR115     -0.1241
     85  CA        17.7860   38.7940   23.9020 C.3   115  TYR115      0.1605
     86  C         17.0900   39.9290   23.1710 C.2   115  TYR115      0.2264
     87  O         15.9210   39.8110   22.7950 O.2   115  TYR115     -0.2867
     88  CB        18.5290   37.9440   22.8700 C.3   115  TYR115      0.0534
     89  CG        19.3450   36.8190   23.4470 C.ar  115  TYR115     -0.0201
     90  CD1       18.7770   35.5710   23.6790 C.ar  115  TYR115     -0.0009
     91  CD2       20.6900   36.9990   23.7500 C.ar  115  TYR115     -0.0009
     92  CE1       19.5330   34.5220   24.1930 C.ar  115  TYR115      0.0417
     93  CE2       21.4550   35.9600   24.2660 C.ar  115  TYR115      0.0417
     94  CZ        20.8710   34.7270   24.4820 C.ar  115  TYR115      0.1957
     95  OH        21.6310   33.6890   24.9720 O.3   115  TYR115     -0.2866
     96  N         17.1120   36.6000   36.3490 N.3   144  PHE144     -0.1241
     97  CA        18.3220   37.3580   36.6100 C.3   144  PHE144      0.1605
     98  C         18.5610   38.3240   35.4610 C.2   144  PHE144      0.2264
     99  O         18.6680   37.9140   34.2980 O.2   144  PHE144     -0.2867
    100  CB        19.5200   36.4170   36.7610 C.3   144  PHE144      0.0534
    101  CG        19.3360   35.3720   37.8220 C.ar  144  PHE144     -0.0203
    102  CD1       18.5150   34.2700   37.5980 C.ar  144  PHE144     -0.0042
    103  CD2       19.9610   35.5010   39.0580 C.ar  144  PHE144     -0.0042
    104  CE1       18.3180   33.3120   38.5920 C.ar  144  PHE144     -0.0003
    105  CE2       19.7700   34.5480   40.0590 C.ar  144  PHE144     -0.0003
    106  CZ        18.9460   33.4520   39.8240 C.ar  144  PHE144     -0.0000
    107  N         20.7420   41.0300   33.3470 N.3   146  PHE146     -0.1241
    108  CA        22.1260   41.2840   33.0160 C.3   146  PHE146      0.1605
    109  C         22.3650   42.7720   32.8360 C.2   146  PHE146      0.2264
    110  O         21.4240   43.5470   32.6760 O.2   146  PHE146     -0.2867
    111  CB        22.5040   40.4840   31.7660 C.3   146  PHE146      0.0534
    112  CG        22.7060   39.0310   32.0470 C.ar  146  PHE146     -0.0203
    113  CD1       21.6390   38.2340   32.4480 C.ar  146  PHE146     -0.0042
    114  CD2       23.9800   38.4810   32.0280 C.ar  146  PHE146     -0.0042
    115  CE1       21.8430   36.9150   32.8350 C.ar  146  PHE146     -0.0003
    116  CE2       24.1950   37.1640   32.4130 C.ar  146  PHE146     -0.0003
    117  CZ        23.1240   36.3800   32.8190 C.ar  146  PHE146     -0.0000
@<TRIPOS>BOND
     1    40    41    1
     2    87    86    2
     3    41    42    1
     4    41    44    1
     5    88    89    1
     6    88    85    1
     7    86    85    1
     8    45    44    1
     9    42    43    2
    10    89    90   ar
    11    89    91   ar
    12    90    92   ar
    13    91    93   ar
    14    44    46    1
    15    85    84    1
    16    92    94   ar
    17    93    94   ar
    18    94    95    1
    19     1     2    1
    20    36    35    2
    21    35    34    1
    22    78    77    2
    23     2     5    1
    24     2     3    1
    25    47    48    1
    26    39    37    1
    27    77    76    1
    28    34    37    1
    29    34    33    1
    30    56    55    1
    31     5     6    1
    32    79    76    1
    33    79    80    1
    34     3     4    2
    35    57    55    1
    36    37    38    1
    37    81    80    1
    38    81    82    1
    39     7     6    1
    40    76    75    1
    41    48    49    1
    42    48    51    1
    43    55    54    2
    44    83    82    1
    45     6     8    1
    46    52    51    1
    47    52    53    1
    48    50    49    2
    49    54    53    1
    50    72    71    2
    51    68    66    1
    52    65    66    2
    53    65    64    1
    54    66    67    1
    55    63    64    1
    56    63    62    1
    57    58    59    1
    58    71    70    1
    59    59    62    1
    60    59    60    1
    61    74    73    1
    62    69    70    1
    63    15    13    1
    64    70    73    1
    65    60    61    2
    66   111   112    1
    67   111   108    1
    68   114   112   ar
    69   114   116   ar
    70   112   113   ar
    71    10     9    1
    72    10    13    1
    73    10    11    1
    74    14    13    1
    75   116   117   ar
    76   113   115   ar
    77   110   109    2
    78   117   115   ar
    79   109   108    1
    80   108   107    1
    81    11    12    2
    82    99    98    2
    83    20    21    1
    84    20    17    1
    85    16    17    1
    86    98    97    1
    87    17    18    1
    88    96    97    1
    89    97   100    1
    90   100   101    1
    91    18    19    2
    92   102   101   ar
    93   102   104   ar
    94   101   103   ar
    95    31    30    1
    96   104   106   ar
    97    29    30    2
    98    29    28    1
    99   103   105   ar
   100    30    32    1
   101    28    27    1
   102   106   105   ar
   103    26    27    1
   104    26    23    1
   105    22    23    1
   106    23    24    1
   107    24    25    2
