@<TRIPOS>MOLECULE
tmp/1lf8B00.pdb
 156 150 0 0 0
SMALL
GASTEIGER

@<TRIPOS>ATOM
      1  N         23.7420   17.3670    4.4010 N.3    88  LYS88      -0.1231
      2  CA        22.7280   17.1240    3.3780 C.3    88  LYS88       0.1693
      3  C         22.1710   15.7130    3.5440 C.2    88  LYS88       0.2592
      4  O         22.8640   14.8070    4.0060 O.2    88  LYS88      -0.2718
      5  CB        23.3230   17.2910    1.9830 C.3    88  LYS88       0.0285
      6  CG        23.7790   18.7080    1.6750 C.3    88  LYS88       0.0035
      7  CD        24.4770   18.7570    0.3400 C.3    88  LYS88       0.0206
      8  CE        24.8460   20.1760   -0.0480 C.3    88  LYS88       0.1093
      9  NZ        25.4690   20.2200   -1.4080 N.3    88  LYS88      -0.1314
     10  N         20.9130   15.5240    3.1810 N.am   89  PHE89      -0.1962
     11  CA        20.3090   14.2090    3.3050 C.3    89  PHE89       0.1771
     12  C         20.9990   13.1770    2.4070 C.2    89  PHE89       0.2619
     13  O         21.0070   11.9900    2.7120 O.2    89  PHE89      -0.2715
     14  CB        18.8120   14.2960    2.9980 C.3    89  PHE89       0.0574
     15  CG        18.0250   15.0330    4.0500 C.ar   89  PHE89      -0.0200
     16  CD1       18.0510   14.6120    5.3760 C.ar   89  PHE89      -0.0042
     17  CD2       17.2710   16.1570    3.7200 C.ar   89  PHE89      -0.0042
     18  CE1       17.3440   15.2970    6.3580 C.ar   89  PHE89      -0.0003
     19  CE2       16.5560   16.8510    4.7030 C.ar   89  PHE89      -0.0003
     20  CZ        16.5970   16.4160    6.0230 C.ar   89  PHE89      -0.0000
     21  N         21.5810   13.6400    1.3070 N.am   90  ARG90      -0.1977
     22  CA        22.2910   12.7700    0.3790 C.3    90  ARG90       0.1597
     23  C         23.2850   11.9220    1.1690 C.2    90  ARG90       0.2287
     24  O         23.4750   10.7390    0.8850 O.2    90  ARG90      -0.2864
     25  CB        23.0420   13.6190   -0.6460 C.3    90  ARG90       0.0334
     26  CG        23.6990   12.8450   -1.7680 C.3    90  ARG90       0.0492
     27  CD        24.6580   13.7540   -2.5330 C.3    90  ARG90       0.2205
     28  NE        24.0120   14.9660   -3.0400 N.pl3  90  ARG90      -0.0865
     29  CZ        24.5270   16.1930   -2.9480 C.cat  90  ARG90       0.5346
     30  NH1       25.7010   16.3910   -2.3600 N.pl3  90  ARG90       0.1354
     31  NH2       23.8700   17.2260   -3.4580 N.pl3  90  ARG90       0.1354
     32  N         21.1970   10.3160    4.7900 N.3    93  ASN93      -0.1240
     33  CA        20.3880    9.1180    4.5340 C.3    93  ASN93       0.1653
     34  C         21.2640    7.8620    4.5590 C.2    93  ASN93       0.2266
     35  O         20.8070    6.7850    4.9530 O.2    93  ASN93      -0.2867
     36  CB        19.6810    9.1910    3.1720 C.3    93  ASN93       0.1155
     37  CG        18.5780   10.2390    3.1250 C.2    93  ASN93       0.2627
     38  OD1       18.2340   10.8540    4.1310 O.2    93  ASN93      -0.2716
     39  ND2       18.0110   10.4350    1.9450 N.am   93  ASN93      -0.0877
     40  N         21.6200    6.8900    8.0300 N.3    96  ILE96      -0.1231
     41  CA        20.3580    6.3850    8.5320 C.3    96  ILE96       0.1692
     42  C         20.2430    4.9000    8.1710 C.2    96  ILE96       0.2591
     43  O         19.8180    4.0910    8.9950 O.2    96  ILE96      -0.2718
     44  CB        19.1930    7.1950    7.9340 C.3    96  ILE96       0.0266
     45  CG1       19.0630    8.5120    8.6970 C.3    96  ILE96       0.0019
     46  CG2       17.9060    6.3910    7.9640 C.3    96  ILE96       0.0020
     47  CD1       18.3240    9.5800    7.9480 C.3    96  ILE96       0.0001
     48  N         20.6490    4.5450    6.9490 N.am   97  LYS97      -0.1980
     49  CA        20.5990    3.1510    6.5000 C.3    97  LYS97       0.1596
     50  C         21.4720    2.2450    7.3540 C.2    97  LYS97       0.2287
     51  O         21.2080    1.0530    7.4730 O.2    97  LYS97      -0.2864
     52  CB        21.0420    3.0320    5.0450 C.3    97  LYS97       0.0298
     53  CG        20.0670    3.6200    4.0520 C.3    97  LYS97       0.0038
     54  CD        20.6960    3.7160    2.6700 C.3    97  LYS97       0.0206
     55  CE        19.7110    4.2480    1.6550 C.3    97  LYS97       0.1093
     56  NZ        20.3960    4.5100    0.3670 N.3    97  LYS97      -0.1314
     57  N         19.2940    1.7530   10.8550 N.3   100  SER100     -0.1203
     58  CA        17.9450    1.2180   10.7250 C.3   100  SER100      0.2005
     59  C         17.9520   -0.2510   10.3060 C.2   100  SER100      0.2461
     60  O         18.7070   -0.6480    9.4120 O.2   100  SER100     -0.2732
     61  CB        17.1560    2.0390    9.7060 C.3   100  SER100      0.2103
     62  OG        17.1990    3.4130   10.0510 O.3   100  SER100     -0.2182
     63  N         17.1150   -1.0780   10.9610 N.am  101  PRO101     -0.2717
     64  CA        16.9920   -2.5150   10.6870 C.3   101  PRO101      0.1535
     65  C         16.3800   -2.8040    9.3150 C.2   101  PRO101      0.2598
     66  O         16.5790   -3.8760    8.7520 O.2   101  PRO101     -0.2715
     67  CB        16.0920   -3.0090   11.8200 C.3   101  PRO101      0.0310
     68  CG        16.3390   -2.0150   12.9270 C.3   101  PRO101      0.0237
     69  CD        16.3590   -0.7150   12.1710 C.3   101  PRO101      0.0939
     70  N         15.6390   -1.8410    8.7780 N.am  102  LYS102     -0.1964
     71  CA        14.9990   -2.0160    7.4800 C.3   102  LYS102      0.1728
     72  C         15.9690   -1.8530    6.3140 C.2   102  LYS102      0.2616
     73  O         15.5770   -1.9520    5.1510 O.2   102  LYS102     -0.2715
     74  CB        13.8280   -1.0390    7.3390 C.3   102  LYS102      0.0311
     75  CG        12.8240   -1.1610    8.4760 C.3   102  LYS102      0.0038
     76  CD        11.5430   -0.3940    8.2150 C.3   102  LYS102      0.0206
     77  CE        10.5480   -0.6090    9.3500 C.3   102  LYS102      0.1093
     78  NZ         9.2680    0.1180    9.1190 N.3   102  LYS102     -0.1314
     79  N         17.2370   -1.6020    6.6260 N.am  103  TYR103     -0.1974
     80  CA        18.2530   -1.4500    5.5930 C.3   103  TYR103      0.1639
     81  C         19.5000   -2.2570    5.9160 C.2   103  TYR103      0.2290
     82  O         19.6190   -3.4050    5.4970 O.2   103  TYR103     -0.2864
     83  CB        18.6310    0.0200    5.4060 C.3   103  TYR103      0.0560
     84  CG        17.5070    0.8810    4.8790 C.ar  103  TYR103     -0.0198
     85  CD1       16.5600    1.4240    5.7410 C.ar  103  TYR103     -0.0009
     86  CD2       17.3840    1.1450    3.5160 C.ar  103  TYR103     -0.0009
     87  CE1       15.5190    2.2130    5.2640 C.ar  103  TYR103      0.0417
     88  CE2       16.3450    1.9280    3.0280 C.ar  103  TYR103      0.0417
     89  CZ        15.4150    2.4590    3.9100 C.ar  103  TYR103      0.1957
     90  OH        14.3780    3.2340    3.4410 O.3   103  TYR103     -0.2866
     91  N         19.2430   20.0680    8.6270 N.3   132  LYS132     -0.1245
     92  CA        19.0450   18.6910    8.1980 C.3   132  LYS132      0.1561
     93  C         19.6120   17.6490    9.1620 C.2   132  LYS132      0.2260
     94  O         19.0270   16.5820    9.3390 O.2   132  LYS132     -0.2867
     95  CB        19.6120   18.5210    6.7880 C.3   132  LYS132      0.0271
     96  CG        18.9230   19.4580    5.7800 C.3   132  LYS132      0.0035
     97  CD        19.4600   19.3390    4.3650 C.3   132  LYS132      0.0206
     98  CE        18.5950   20.1320    3.3930 C.3   132  LYS132      0.1093
     99  NZ        19.1350   20.1020    1.9960 N.3   132  LYS132     -0.1314
    100  N         17.0320   17.3040   11.6740 N.3   135  ASP135     -0.1225
    101  CA        15.8900   16.6190   11.0670 C.3   135  ASP135      0.1805
    102  C         16.1160   15.1150   11.1150 C.2   135  ASP135      0.2597
    103  O         15.2610   14.3510   11.5610 O.2   135  ASP135     -0.2718
    104  CB        15.7360   17.0320    9.6020 C.3   135  ASP135      0.1424
    105  CG        14.9830   18.3380    9.4290 C.2   135  ASP135      0.3668
    106  OD1       15.1820   19.2620   10.2460 O.co2 135  ASP135     -0.2456
    107  OD2       14.1970   18.4450    8.4590 O.co2 135  ASP135     -0.2456
    108  N         17.2830   14.6960   10.6360 N.am  136  ALA136     -0.1979
    109  CA        17.6310   13.2860   10.6000 C.3   136  ALA136      0.1597
    110  C         17.6720   12.6670   11.9890 C.2   136  ALA136      0.2287
    111  O         17.0910   11.6010   12.2080 O.2   136  ALA136     -0.2864
    112  CB        18.9760   13.0930    9.8960 C.3   136  ALA136      0.0319
    113  N         14.2590   12.4970   13.5730 N.3   139  MET139     -0.1230
    114  CA        13.4720   11.4450   12.9410 C.3   139  MET139      0.1702
    115  C         13.8370   10.0820   13.5350 C.2   139  MET139      0.2592
    116  O         12.9650    9.2550   13.8040 O.2   139  MET139     -0.2718
    117  CB        13.7120   11.4370   11.4270 C.3   139  MET139      0.0401
    118  CG        12.7850   10.5080   10.6510 C.3   139  MET139      0.0596
    119  SD        13.6420    9.1510    9.8240 S.3   139  MET139     -0.1393
    120  CE        13.8990    8.0320   11.1850 C.3   139  MET139      0.0692
    121  N         15.1280    9.8470   13.7410 N.am  140  LEU140     -0.1980
    122  CA        15.5720    8.5750   14.3070 C.3   140  LEU140      0.1596
    123  C         15.0240    8.3420   15.7070 C.2   140  LEU140      0.2287
    124  O         14.8230    7.2000   16.1160 O.2   140  LEU140     -0.2864
    125  CB        17.0980    8.5130   14.3470 C.3   140  LEU140      0.0297
    126  CG        17.7930    8.4230   12.9880 C.3   140  LEU140      0.0022
    127  CD1       19.2980    8.5210   13.1730 C.3   140  LEU140      0.0001
    128  CD2       17.4010    7.1080   12.3060 C.3   140  LEU140      0.0001
    129  N         11.9630    9.6070   17.0500 N.3   142  ARG142     -0.1231
    130  CA        10.5420    9.2940   17.0560 C.3   142  ARG142      0.1694
    131  C         10.2320    7.9500   16.4000 C.2   142  ARG142      0.2591
    132  O          9.1290    7.4260   16.5560 O.2   142  ARG142     -0.2718
    133  CB         9.7250   10.4090   16.3920 C.3   142  ARG142      0.0321
    134  CG        10.0760   10.6980   14.9590 C.3   142  ARG142      0.0489
    135  CD         8.9560   11.4730   14.2880 C.3   142  ARG142      0.2205
    136  NE         9.3170   11.8690   12.9320 N.pl3 142  ARG142     -0.0865
    137  CZ        10.1680   12.8490   12.6430 C.cat 142  ARG142      0.5346
    138  NH1       10.7470   13.5450   13.6160 N.pl3 142  ARG142      0.1354
    139  NH2       10.4480   13.1290   11.3760 N.pl3 142  ARG142      0.1354
    140  N         11.1990    7.3920   15.6740 N.am  143  GLN143     -0.1979
    141  CA        11.0090    6.0940   15.0360 C.3   143  GLN143      0.1601
    142  C         11.4970    4.9760   15.9530 C.2   143  GLN143      0.2287
    143  O         11.3410    3.7970   15.6460 O.2   143  GLN143     -0.2864
    144  CB        11.7480    6.0230   13.6930 C.3   143  GLN143      0.0394
    145  CG        11.0310    6.7260   12.5460 C.3   143  GLN143      0.0908
    146  CD         9.6290    6.1790   12.3060 C.2   143  GLN143      0.2608
    147  OE1        9.4570    5.0080   11.9510 O.2   143  GLN143     -0.2717
    148  NE2        8.6190    7.0250   12.5050 N.am  143  GLN143     -0.0878
    149  N         14.6900    4.2110   16.7900 N.3   145  ILE145     -0.1245
    150  CA        16.0610    3.7350   16.5750 C.3   145  ILE145      0.1561
    151  C         16.9580    4.2480   17.7030 C.2   145  ILE145      0.2260
    152  O         17.7900    3.5130   18.2380 O.2   145  ILE145     -0.2867
    153  CB        16.6290    4.2190   15.2250 C.3   145  ILE145      0.0252
    154  CG1       15.6860    3.8300   14.0810 C.3   145  ILE145      0.0019
    155  CG2       18.0060    3.6120   15.0020 C.3   145  ILE145      0.0019
    156  CD1       15.4860    2.3430   13.9100 C.3   145  ILE145      0.0001
@<TRIPOS>BOND
     1    31    29    1
     2    28    29    2
     3    28    27    1
     4    29    30    1
     5    27    26    1
     6    26    25    1
     7     9     8    1
     8    25    22    1
     9     8     7    1
    10     7     6    1
    11    56    55    1
    12    22    23    1
    13    22    21    1
    14    24    23    2
    15    21    12   am
    16    55    54    1
    17     6     5    1
    18    39    37   am
    19     5     2    1
    20    99    98    1
    21    12    13    2
    22    12    11    1
    23    54    53    1
    24    14    11    1
    25    14    15    1
    26    88    86   ar
    27    88    89   ar
    28    37    36    1
    29    37    38    2
    30    36    33    1
    31    10    11    1
    32    10     3   am
    33     2     3    1
    34     2     1    1
    35    98    97    1
    36    90    89    1
    37    86    84   ar
    38     3     4    2
    39    17    15   ar
    40    17    19   ar
    41    89    87   ar
    42    15    16   ar
    43    53    52    1
    44    97    96    1
    45    33    34    1
    46    33    32    1
    47    34    35    2
    48    19    20   ar
    49    84    83    1
    50    84    85   ar
    51    52    49    1
    52    73    72    2
    53    87    85   ar
    54    16    18   ar
    55    83    80    1
    56    82    81    2
    57    80    81    1
    58    80    79    1
    59    96    95    1
    60    20    18   ar
    61    72    79   am
    62    72    71    1
    63    49    48    1
    64    49    50    1
    65    95    92    1
    66    48    42   am
    67    74    71    1
    68    74    75    1
    69    50    51    2
    70    71    70    1
    71    44    46    1
    72    44    41    1
    73    44    45    1
    74    47    45    1
    75    40    41    1
    76    42    41    1
    77    42    43    2
    78    92    91    1
    79    92    93    1
    80    76    75    1
    81    76    77    1
    82   107   105   ar
    83    66    65    2
    84    70    65   am
    85    78    77    1
    86    93    94    2
    87    65    64    1
    88    60    59    2
    89   105   104    1
    90   105   106   ar
    91   104   101    1
    92    61    62    1
    93    61    58    1
    94   119   118    1
    95   119   120    1
    96   112   109    1
    97    59    58    1
    98    59    63   am
    99   109   108    1
   100   109   110    1
   101   108   102   am
   102   118   117    1
   103    64    63    1
   104    64    67    1
   105    58    57    1
   106    63    69    1
   107   101   102    1
   108   101   100    1
   109   102   103    2
   110   139   137    1
   111   117   114    1
   112    67    68    1
   113   147   146    2
   114   110   111    2
   115    69    68    1
   116   146   148   am
   117   146   145    1
   118   128   126    1
   119   145   144    1
   120   137   136    2
   121   137   138    1
   122   136   135    1
   123   114   115    1
   124   114   113    1
   125   126   127    1
   126   126   125    1
   127   115   121   am
   128   115   116    2
   129   144   141    1
   130   121   122    1
   131   156   154    1
   132   154   153    1
   133   135   134    1
   134   122   125    1
   135   122   123    1
   136   134   133    1
   137   155   153    1
   138   141   140    1
   139   141   142    1
   140   153   150    1
   141   143   142    2
   142   140   131   am
   143   123   124    2
   144   133   130    1
   145   131   132    2
   146   131   130    1
   147   150   149    1
   148   150   151    1
   149   129   130    1
   150   151   152    2
