@<TRIPOS>MOLECULE
tmp/1lf8D00.pdb
 165 159 0 0 0
SMALL
GASTEIGER

@<TRIPOS>ATOM
      1  N         17.1340   39.3860   32.6250 N.3    88  LYS88      -0.1231
      2  CA        17.0680   40.3510   31.5420 C.3    88  LYS88       0.1693
      3  C         15.6620   40.9020   31.5230 C.2    88  LYS88       0.2592
      4  O         14.6960   40.1730   31.7810 O.2    88  LYS88      -0.2718
      5  CB        17.4100   39.6920   30.2040 C.3    88  LYS88       0.0285
      6  CG        18.8990   39.4180   30.0290 C.3    88  LYS88       0.0035
      7  CD        19.1820   38.6480   28.7520 C.3    88  LYS88       0.0206
      8  CE        20.6800   38.4740   28.5450 C.3    88  LYS88       0.1093
      9  NZ        20.9810   37.5820   27.3880 N.3    88  LYS88      -0.1314
     10  N         15.5440   42.1970   31.2470 N.am   89  PHE89      -0.1962
     11  CA        14.2420   42.8370   31.2160 C.3    89  PHE89       0.1771
     12  C         13.2700   42.1500   30.2670 C.2    89  PHE89       0.2619
     13  O         12.0560   42.1810   30.4800 O.2    89  PHE89      -0.2715
     14  CB        14.4050   44.3210   30.8770 C.3    89  PHE89       0.0574
     15  CG        15.0940   45.1060   31.9670 C.ar   89  PHE89      -0.0200
     16  CD1       14.6020   45.0750   33.2760 C.ar   89  PHE89      -0.0042
     17  CD2       16.2480   45.8380   31.7030 C.ar   89  PHE89      -0.0042
     18  CE1       15.2480   45.7540   34.3030 C.ar   89  PHE89      -0.0003
     19  CE2       16.9050   46.5260   32.7270 C.ar   89  PHE89      -0.0003
     20  CZ        16.4010   46.4820   34.0310 C.ar   89  PHE89      -0.0000
     21  N         13.8100   41.5070   29.2370 N.am   90  ARG90      -0.1977
     22  CA        12.9990   40.7920   28.2590 C.3    90  ARG90       0.1597
     23  C         12.0870   39.7930   28.9790 C.2    90  ARG90       0.2287
     24  O         10.9470   39.5820   28.5770 O.2    90  ARG90      -0.2864
     25  CB        13.9080   40.0590   27.2680 C.3    90  ARG90       0.0334
     26  CG        13.2080   39.6280   25.9920 C.3    90  ARG90       0.0492
     27  CD        14.0140   38.5880   25.2150 C.3    90  ARG90       0.2205
     28  NE        15.3940   39.0010   24.9550 N.pl3  90  ARG90      -0.0865
     29  CZ        16.4690   38.3940   25.4560 C.cat  90  ARG90       0.5346
     30  NH1       16.3330   37.3380   26.2540 N.pl3  90  ARG90       0.1354
     31  NH2       17.6830   38.8310   25.1440 N.pl3  90  ARG90       0.1354
     32  N         10.1630   41.9150   32.4900 N.3    93  ASN93      -0.1225
     33  CA         9.0210   42.7330   32.0840 C.3    93  ASN93       0.1785
     34  C          7.7470   41.8920   32.0630 C.2    93  ASN93       0.2597
     35  O          6.6640   42.3800   32.3860 O.2    93  ASN93      -0.2718
     36  CB         9.2470   43.3420   30.6930 C.3    93  ASN93       0.1169
     37  CG        10.1720   44.5450   30.7210 C.2    93  ASN93       0.2627
     38  OD1       10.5370   45.0350   31.7860 O.2    93  ASN93      -0.2716
     39  ND2       10.5510   45.0300   29.5460 N.am   93  ASN93      -0.0877
     40  N          7.8840   40.6290   31.6800 N.am   94  GLU94      -0.1979
     41  CA         6.7380   39.7310   31.6200 C.3    94  GLU94       0.1602
     42  C          6.1710   39.4150   33.0110 C.2    94  GLU94       0.2287
     43  O          4.9620   39.2640   33.1640 O.2    94  GLU94      -0.2864
     44  CB         7.1190   38.4310   30.9010 C.3    94  GLU94       0.0415
     45  CG         7.4520   38.6000   29.4290 C.3    94  GLU94       0.1163
     46  CD         6.3580   39.3400   28.6600 C.2    94  GLU94       0.3649
     47  OE1        5.1660   38.9830   28.8060 O.co2  94  GLU94      -0.2457
     48  OE2        6.6960   40.2820   27.9070 O.co2  94  GLU94      -0.2457
     49  N          6.5400   41.4510   35.5590 N.3    96  ILE96      -0.1231
     50  CA         6.0260   42.7340   36.0120 C.3    96  ILE96       0.1692
     51  C          4.5700   42.8550   35.5420 C.2    96  ILE96       0.2591
     52  O          3.7050   43.3480   36.2700 O.2    96  ILE96      -0.2718
     53  CB         6.8710   43.8950   35.4330 C.3    96  ILE96       0.0266
     54  CG1        8.2530   43.9000   36.0960 C.3    96  ILE96       0.0019
     55  CG2        6.1630   45.2330   35.6440 C.3    96  ILE96       0.0020
     56  CD1        9.2430   44.8770   35.4750 C.3    96  ILE96       0.0001
     57  N          4.2970   42.3760   34.3330 N.am   97  LYS97      -0.1980
     58  CA         2.9480   42.4500   33.7930 C.3    97  LYS97       0.1596
     59  C          1.9530   41.6390   34.6130 C.2    97  LYS97       0.2287
     60  O          0.7840   42.0110   34.7340 O.2    97  LYS97      -0.2864
     61  CB         2.9430   41.9980   32.3270 C.3    97  LYS97       0.0298
     62  CG         3.6970   42.9580   31.3980 C.3    97  LYS97       0.0038
     63  CD         3.7720   42.4520   29.9610 C.3    97  LYS97       0.0206
     64  CE         4.6340   43.3910   29.1050 C.3    97  LYS97       0.1093
     65  NZ         4.9300   42.8680   27.7270 N.3    97  LYS97      -0.1314
     66  N          1.2050   43.9040   37.8380 N.3   100  SER100     -0.1203
     67  CA         0.7820   45.2870   37.6380 C.3   100  SER100      0.2005
     68  C         -0.6820   45.3720   37.2300 C.2   100  SER100      0.2461
     69  O         -1.0890   44.7820   36.2300 O.2   100  SER100     -0.2732
     70  CB         1.6420   45.9570   36.5690 C.3   100  SER100      0.2103
     71  OG         3.0060   45.9440   36.9480 O.3   100  SER100     -0.2182
     72  N         -1.4950   46.1040   38.0120 N.am  101  PRO101     -0.2717
     73  CA        -2.9220   46.2690   37.7270 C.3   101  PRO101      0.1535
     74  C         -3.1130   46.9040   36.3550 C.2   101  PRO101      0.2598
     75  O         -4.1680   46.7710   35.7350 O.2   101  PRO101     -0.2715
     76  CB        -3.3930   47.1840   38.8540 C.3   101  PRO101      0.0310
     77  CG        -2.4920   46.8000   39.9840 C.3   101  PRO101      0.0237
     78  CD        -1.1500   46.7280   39.3010 C.3   101  PRO101      0.0939
     79  N         -2.0750   47.5890   35.8870 N.am  102  LYS102     -0.1964
     80  CA        -2.1120   48.2460   34.5910 C.3   102  LYS102      0.1728
     81  C         -2.0300   47.2420   33.4360 C.2   102  LYS102      0.2616
     82  O         -2.2590   47.6040   32.2750 O.2   102  LYS102     -0.2715
     83  CB        -0.9640   49.2570   34.4790 C.3   102  LYS102      0.0311
     84  CG        -0.9430   50.0060   33.1520 C.3   102  LYS102      0.0038
     85  CD         0.2750   50.9120   32.9900 C.3   102  LYS102      0.0206
     86  CE         0.2570   51.5790   31.6150 C.3   102  LYS102      0.1093
     87  NZ         1.4440   52.4320   31.3760 N.3   102  LYS102     -0.1314
     88  N         -1.7070   45.9860   33.7460 N.am  103  TYR103     -0.1974
     89  CA        -1.6090   44.9640   32.7080 C.3   103  TYR103      0.1639
     90  C         -2.4540   43.7210   32.9610 C.2   103  TYR103      0.2290
     91  O         -3.5540   43.6020   32.4250 O.2   103  TYR103     -0.2864
     92  CB        -0.1500   44.5510   32.4870 C.3   103  TYR103      0.0560
     93  CG         0.7320   45.6830   32.0190 C.ar  103  TYR103     -0.0198
     94  CD1        1.2170   46.6250   32.9200 C.ar  103  TYR103     -0.0009
     95  CD2        1.0620   45.8300   30.6700 C.ar  103  TYR103     -0.0009
     96  CE1        2.0110   47.6890   32.4970 C.ar  103  TYR103      0.0417
     97  CE2        1.8540   46.8940   30.2330 C.ar  103  TYR103      0.0417
     98  CZ         2.3240   47.8200   31.1550 C.ar  103  TYR103      0.1957
     99  OH         3.1040   48.8840   30.7550 O.3   103  TYR103     -0.2866
    100  N         19.8380   43.6350   37.0870 N.3   132  LYS132     -0.1245
    101  CA        18.5390   44.0130   36.5410 C.3   132  LYS132      0.1561
    102  C         17.3560   43.5020   37.3620 C.2   132  LYS132      0.2260
    103  O         16.2970   44.1380   37.3930 O.2   132  LYS132     -0.2867
    104  CB        18.4180   43.5360   35.1010 C.3   132  LYS132      0.0271
    105  CG        19.3880   44.2230   34.1550 C.3   132  LYS132      0.0035
    106  CD        19.3260   43.6040   32.7730 C.3   132  LYS132      0.0206
    107  CE        20.1570   44.3940   31.7810 C.3   132  LYS132      0.1093
    108  NZ        20.0850   43.7800   30.4300 N.3   132  LYS132     -0.1314
    109  N         16.7830   46.0180   39.7900 N.3   135  ASP135     -0.1225
    110  CA        16.1790   47.1680   39.1280 C.3   135  ASP135      0.1805
    111  C         14.6780   46.9680   39.0070 C.2   135  ASP135      0.2597
    112  O         13.8840   47.8230   39.4160 O.2   135  ASP135     -0.2718
    113  CB        16.7520   47.3640   37.7220 C.3   135  ASP135      0.1424
    114  CG        18.2180   47.7120   37.7340 C.2   135  ASP135      0.3668
    115  OD1       18.6340   48.4760   38.6310 O.co2 135  ASP135     -0.2456
    116  OD2       18.9510   47.2350   36.8390 O.co2 135  ASP135     -0.2456
    117  N         14.2920   45.8300   38.4380 N.am  136  ALA136     -0.1979
    118  CA        12.8830   45.5360   38.2650 C.3   136  ALA136      0.1597
    119  C         12.1820   45.5020   39.6120 C.2   136  ALA136      0.2287
    120  O         11.0940   46.0560   39.7610 O.2   136  ALA136     -0.2864
    121  CB        12.6990   44.2060   37.5350 C.3   136  ALA136      0.0319
    122  N         11.6190   49.0020   41.1520 N.3   139  MET139     -0.1230
    123  CA        10.6250   49.8450   40.5260 C.3   139  MET139      0.1702
    124  C          9.2380   49.4010   40.9910 C.2   139  MET139      0.2592
    125  O          8.3250   50.2190   41.0930 O.2   139  MET139     -0.2718
    126  CB        10.7610   49.8110   38.9960 C.3   139  MET139      0.0401
    127  CG        10.0980   48.6430   38.3140 C.3   139  MET139      0.0596
    128  SD         8.8980   49.2420   37.1200 S.3   139  MET139     -0.1393
    129  CE         7.5480   49.6650   38.2000 C.3   139  MET139      0.0692
    130  N          9.0770   48.1140   41.2960 N.am  140  LEU140     -0.1980
    131  CA         7.7860   47.6320   41.7830 C.3   140  LEU140      0.1596
    132  C          7.4780   48.2630   43.1430 C.2   140  LEU140      0.2287
    133  O          6.3470   48.6740   43.4030 O.2   140  LEU140     -0.2864
    134  CB         7.7750   46.1090   41.9040 C.3   140  LEU140      0.0297
    135  CG         7.7580   45.3250   40.5880 C.3   140  LEU140      0.0022
    136  CD1        7.6430   43.8380   40.8830 C.3   140  LEU140      0.0001
    137  CD2        6.5900   45.7800   39.7330 C.3   140  LEU140      0.0001
    138  N          8.7880   51.0940   44.2700 N.3   142  ARG142     -0.1231
    139  CA         8.6290   52.5220   44.0100 C.3   142  ARG142      0.1694
    140  C          7.1740   52.8310   43.6570 C.2   142  ARG142      0.2591
    141  O          6.5480   53.7000   44.2670 O.2   142  ARG142     -0.2718
    142  CB         9.5360   52.9610   42.8520 C.3   142  ARG142      0.0321
    143  CG         9.4290   54.4430   42.5010 C.3   142  ARG142      0.0489
    144  CD        10.0260   54.7680   41.1230 C.3   142  ARG142      0.2205
    145  NE         9.3160   54.0900   40.0350 N.pl3 142  ARG142     -0.0865
    146  CZ         9.5600   54.2730   38.7390 C.cat 142  ARG142      0.5346
    147  NH1       10.5000   55.1190   38.3430 N.pl3 142  ARG142      0.1354
    148  NH2        8.8680   53.5960   37.8330 N.pl3 142  ARG142      0.1354
    149  N          6.6400   52.1060   42.6770 N.am  143  GLN143     -0.1979
    150  CA         5.2630   52.3030   42.2280 C.3   143  GLN143      0.1601
    151  C          4.2340   51.8140   43.2440 C.2   143  GLN143      0.2287
    152  O          3.0290   51.9720   43.0360 O.2   143  GLN143     -0.2864
    153  CB         5.0250   51.5950   40.8870 C.3   143  GLN143      0.0394
    154  CG         5.8660   52.1040   39.7150 C.3   143  GLN143      0.0908
    155  CD         5.6290   53.5780   39.3930 C.2   143  GLN143      0.2608
    156  OE1        4.5950   54.1490   39.7520 O.2   143  GLN143     -0.2717
    157  NE2        6.5810   54.1920   38.6960 N.am  143  GLN143     -0.0878
    158  N          3.5170   48.6750   44.0890 N.3   145  ILE145     -0.1245
    159  CA         2.9550   47.3500   43.8210 C.3   145  ILE145      0.1561
    160  C          3.3870   46.4000   44.9310 C.2   145  ILE145      0.2260
    161  O          2.6310   45.5200   45.3460 O.2   145  ILE145     -0.2867
    162  CB         3.4110   46.8330   42.4440 C.3   145  ILE145      0.0252
    163  CG1        2.8520   47.7660   41.3660 C.3   145  ILE145      0.0019
    164  CG2        2.9190   45.3960   42.2190 C.3   145  ILE145      0.0019
    165  CD1        3.5230   47.6480   40.0290 C.3   145  ILE145      0.0001
@<TRIPOS>BOND
     1    28    27    1
     2    28    29    2
     3    31    29    1
     4    27    26    1
     5    29    30    1
     6    26    25    1
     7    25    22    1
     8     9     8    1
     9    65    64    1
    10    48    46   ar
    11    22    23    1
    12    22    21    1
    13     8     7    1
    14    24    23    2
    15    46    47   ar
    16    46    45    1
    17     7     6    1
    18    64    63    1
    19    21    12   am
    20    45    44    1
    21    39    37   am
    22    63    62    1
    23     6     5    1
    24     5     2    1
    25    97    95   ar
    26    97    98   ar
    27    12    13    2
    28    12    11    1
    29   108   107    1
    30    95    93   ar
    31    36    37    1
    32    36    33    1
    33    37    38    2
    34    99    98    1
    35    14    11    1
    36    14    15    1
    37    44    41    1
    38    98    96   ar
    39    11    10    1
    40    10     3   am
    41    87    86    1
    42    62    61    1
    43     3     2    1
    44     3     4    2
    45     2     1    1
    46    86    85    1
    47    41    40    1
    48    41    42    1
    49    40    34   am
    50    17    15   ar
    51    17    19   ar
    52   107   106    1
    53    15    16   ar
    54    93    92    1
    55    93    94   ar
    56    34    33    1
    57    34    35    2
    58    33    32    1
    59    82    81    2
    60    61    58    1
    61    91    90    2
    62    92    89    1
    63    96    94   ar
    64    89    90    1
    65    89    88    1
    66    19    20   ar
    67   106   105    1
    68    85    84    1
    69    42    43    2
    70    84    83    1
    71    16    18   ar
    72    81    88   am
    73    81    80    1
    74    58    57    1
    75    58    59    1
    76    20    18   ar
    77   105   104    1
    78    57    51   am
    79    83    80    1
    80    80    79    1
    81    59    60    2
    82   104   101    1
    83    53    55    1
    84    53    50    1
    85    53    54    1
    86    56    54    1
    87    51    50    1
    88    51    52    2
    89    49    50    1
    90    75    74    2
    91    79    74   am
    92    69    68    2
    93    74    73    1
    94   101   100    1
    95   101   102    1
    96    70    71    1
    97    70    67    1
    98   116   114   ar
    99   128   129    1
   100   128   127    1
   101    68    67    1
   102    68    72   am
   103   102   103    2
   104   121   118    1
   105    67    66    1
   106   113   114    1
   107   113   110    1
   108    73    72    1
   109    73    76    1
   110   114   115   ar
   111   148   146    1
   112    72    78    1
   113   118   117    1
   114   118   119    1
   115   127   126    1
   116   147   146    1
   117   117   111   am
   118   157   155   am
   119   146   145    2
   120    76    77    1
   121   126   123    1
   122   111   110    1
   123   111   112    2
   124   110   109    1
   125    78    77    1
   126   155   154    1
   127   155   156    2
   128   119   120    2
   129   154   153    1
   130   137   135    1
   131   165   163    1
   132   145   144    1
   133   123   124    1
   134   123   122    1
   135   135   136    1
   136   135   134    1
   137   153   150    1
   138   124   125    2
   139   124   130   am
   140   144   143    1
   141   130   131    1
   142   163   162    1
   143   131   134    1
   144   131   132    1
   145   164   162    1
   146   150   149    1
   147   150   151    1
   148   162   159    1
   149   143   142    1
   150   149   140   am
   151   142   139    1
   152   152   151    2
   153   132   133    2
   154   140   139    1
   155   140   141    2
   156   159   158    1
   157   159   160    1
   158   139   138    1
   159   160   161    2
