@<TRIPOS>MOLECULE
tmp/1lf9A00.pdb
 222 219 0 0 0
SMALL
GASTEIGER

@<TRIPOS>ATOM
      1  N         33.9390   36.9190   33.1600 N.3   309  ALA309     -0.1245
      2  CA        34.6150   37.7700   34.1300 C.3   309  ALA309      0.1562
      3  C         33.7130   38.1580   35.3030 C.2   309  ALA309      0.2260
      4  O         34.1550   38.1900   36.4580 O.2   309  ALA309     -0.2867
      5  CB        35.1340   39.0240   33.4360 C.3   309  ALA309      0.0290
      6  N         28.5850   43.4190   28.5380 N.3   326  GLY326     -0.1210
      7  CA        28.8830   43.7040   29.9300 C.3   326  GLY326      0.1956
      8  C         30.1710   42.9950   30.2960 C.2   326  GLY326      0.2611
      9  O         31.1650   43.0790   29.5710 O.2   326  GLY326     -0.2717
     10  N         30.1630   42.2910   31.4210 N.am  327  TYR327     -0.1976
     11  CA        31.3370   41.5430   31.8470 C.3   327  TYR327      0.1639
     12  C         31.0570   40.0410   31.7230 C.2   327  TYR327      0.2290
     13  O         31.8930   39.2030   32.0860 O.2   327  TYR327     -0.2864
     14  CB        31.7130   41.9060   33.2860 C.3   327  TYR327      0.0560
     15  CG        32.7470   43.0110   33.4070 C.ar  327  TYR327     -0.0198
     16  CD1       32.6470   44.1800   32.6480 C.ar  327  TYR327     -0.0009
     17  CD2       33.8060   42.9090   34.3200 C.ar  327  TYR327     -0.0009
     18  CE1       33.5670   45.2200   32.7960 C.ar  327  TYR327      0.0417
     19  CE2       34.7300   43.9430   34.4780 C.ar  327  TYR327      0.0417
     20  CZ        34.6010   45.0970   33.7130 C.ar  327  TYR327      0.1957
     21  OH        35.4810   46.1420   33.8730 O.3   327  TYR327     -0.2866
     22  N         37.3840   36.4390   29.0560 N.3   331  TRP331     -0.1241
     23  CA        38.7120   37.0330   28.8860 C.3   331  TRP331      0.1605
     24  C         39.7140   35.9540   29.2920 C.2   331  TRP331      0.2264
     25  O         39.5940   35.3500   30.3620 O.2   331  TRP331     -0.2867
     26  CB        38.9280   38.2240   29.8170 C.3   331  TRP331      0.0550
     27  CG        38.4960   39.5700   29.3300 C.ar  331  TRP331      0.0003
     28  CD1       39.2880   40.5270   28.7570 C.ar  331  TRP331      0.0946
     29  CD2       37.2120   40.1750   29.5190 C.ar  331  TRP331      0.0152
     30  NE1       38.5840   41.6950   28.5970 N.ar  331  TRP331     -0.2442
     31  CE2       37.3080   41.5090   29.0560 C.ar  331  TRP331      0.0810
     32  CE3       35.9930   39.7220   30.0400 C.ar  331  TRP331      0.0012
     33  CZ2       36.2270   42.4000   29.1010 C.ar  331  TRP331      0.0191
     34  CZ3       34.9160   40.6060   30.0860 C.ar  331  TRP331      0.0001
     35  CH2       35.0440   41.9320   29.6180 C.ar  331  TRP331      0.0015
     36  N         42.7050   36.3310   30.2680 N.3   333  ARG333     -0.1231
     37  CA        43.3850   36.7250   31.4960 C.3   333  ARG333      0.1694
     38  C         42.5750   36.3360   32.7280 C.2   333  ARG333      0.2592
     39  O         43.0660   35.6120   33.5960 O.2   333  ARG333     -0.2718
     40  CB        43.6480   38.2390   31.4910 C.3   333  ARG333      0.0321
     41  CG        44.1480   38.8100   32.8230 C.3   333  ARG333      0.0489
     42  CD        44.4390   40.3190   32.7260 C.3   333  ARG333      0.2205
     43  NE        43.4100   41.0040   31.9530 N.pl3 333  ARG333     -0.0865
     44  CZ        43.5160   41.3270   30.6650 C.cat 333  ARG333      0.5346
     45  NH1       44.6210   41.0500   29.9850 N.pl3 333  ARG333      0.1354
     46  NH2       42.4870   41.8770   30.0380 N.pl3 333  ARG333      0.1354
     47  N         41.3300   36.8020   32.7950 N.am  334  ASP334     -0.1974
     48  CA        40.4720   36.5130   33.9440 C.3   334  ASP334      0.1709
     49  C         40.2600   35.0260   34.1540 C.2   334  ASP334      0.2293
     50  O         40.2630   34.5480   35.2830 O.2   334  ASP334     -0.2864
     51  CB        39.1100   37.2010   33.7810 C.3   334  ASP334      0.1436
     52  CG        39.2320   38.7100   33.7180 C.2   334  ASP334      0.3671
     53  OD1       38.6040   39.3850   34.5530 O.co2 334  ASP334     -0.2456
     54  OD2       39.9630   39.2160   32.8390 O.co2 334  ASP334     -0.2456
     55  N         41.1610   39.6000   22.2840 N.3   370  GLN370     -0.1245
     56  CA        40.9690   40.3620   23.5240 C.3   370  GLN370      0.1566
     57  C         39.9930   39.6630   24.4680 C.2   370  GLN370      0.2260
     58  O         40.3150   39.3780   25.6240 O.2   370  GLN370     -0.2867
     59  CB        40.4670   41.7740   23.2090 C.3   370  GLN370      0.0367
     60  CG        40.2830   42.6320   24.4470 C.3   370  GLN370      0.0905
     61  CD        40.1580   44.1100   24.1330 C.2   370  GLN370      0.2608
     62  OE1       40.2790   44.5290   22.9790 O.2   370  GLN370     -0.2717
     63  NE2       39.9220   44.9140   25.1700 N.am  370  GLN370     -0.0878
     64  N         35.8250   42.1620   21.4900 N.3   380  TRP380     -0.1241
     65  CA        36.7300   43.2620   21.1570 C.3   380  TRP380      0.1605
     66  C         37.9050   42.6250   20.4410 C.2   380  TRP380      0.2264
     67  O         38.0480   41.4020   20.4660 O.2   380  TRP380     -0.2867
     68  CB        37.1920   44.0190   22.4020 C.3   380  TRP380      0.0550
     69  CG        36.1320   44.9330   22.9250 C.ar  380  TRP380      0.0003
     70  CD1       35.2830   45.7030   22.1840 C.ar  380  TRP380      0.0946
     71  CD2       35.8020   45.1780   24.3020 C.ar  380  TRP380      0.0152
     72  NE1       34.4410   46.4100   23.0130 N.ar  380  TRP380     -0.2442
     73  CE2       34.7370   46.1060   24.3160 C.ar  380  TRP380      0.0810
     74  CE3       36.3030   44.7020   25.5210 C.ar  380  TRP380      0.0012
     75  CZ2       34.1610   46.5680   25.5020 C.ar  380  TRP380      0.0191
     76  CZ3       35.7300   45.1630   26.7040 C.ar  380  TRP380      0.0001
     77  CH2       34.6670   46.0890   26.6820 C.ar  380  TRP380      0.0015
     78  N         48.1670   46.2100   23.7100 N.3   424  GLN424     -0.1245
     79  CA        47.6830   46.8390   24.9250 C.3   424  GLN424      0.1566
     80  C         48.0650   45.9650   26.1120 C.2   424  GLN424      0.2260
     81  O         48.2410   44.7470   25.9720 O.2   424  GLN424     -0.2867
     82  CB        46.1650   47.0690   24.8570 C.3   424  GLN424      0.0367
     83  CG        45.3230   45.8560   24.5560 C.3   424  GLN424      0.0905
     84  CD        43.9060   46.2350   24.1310 C.2   424  GLN424      0.2608
     85  OE1       42.9800   45.4340   24.2320 O.2   424  GLN424     -0.2717
     86  NE2       43.7400   47.4580   23.6420 N.am  424  GLN424     -0.0878
     87  N         47.4400   44.7460   30.3290 N.3   426  ARG426     -0.1231
     88  CA        46.2690   44.1150   30.9160 C.3   426  ARG426      0.1694
     89  C         45.0470   44.9740   31.2020 C.2   426  ARG426      0.2592
     90  O         43.9490   44.4390   31.3480 O.2   426  ARG426     -0.2718
     91  CB        46.6510   43.2910   32.1610 C.3   426  ARG426      0.0321
     92  CG        47.1380   44.0670   33.3610 C.3   426  ARG426      0.0489
     93  CD        47.4180   43.0950   34.4910 C.3   426  ARG426      0.2205
     94  NE        47.6720   43.7720   35.7560 N.pl3 426  ARG426     -0.0865
     95  CZ        47.7480   43.1510   36.9250 C.cat 426  ARG426      0.5346
     96  NH1       47.9790   43.8440   38.0340 N.pl3 426  ARG426      0.1354
     97  NH2       47.5880   41.8370   36.9870 N.pl3 426  ARG426      0.1354
     98  N         45.2150   46.2910   31.2720 N.am  427  TRP427     -0.1962
     99  CA        44.0690   47.1640   31.5190 C.3   427  TRP427      0.1771
    100  C         43.3510   47.4680   30.1910 C.2   427  TRP427      0.2620
    101  O         42.3680   48.1980   30.1570 O.2   427  TRP427     -0.2715
    102  CB        44.5120   48.4550   32.2040 C.3   427  TRP427      0.0590
    103  CG        45.1610   48.2590   33.5560 C.ar  427  TRP427      0.0006
    104  CD1       46.1000   49.0660   34.1240 C.ar  427  TRP427      0.0946
    105  CD2       44.8890   47.2230   34.5220 C.ar  427  TRP427      0.0152
    106  NE1       46.4270   48.6080   35.3720 N.ar  427  TRP427     -0.2442
    107  CE2       45.7010   47.4800   35.6440 C.ar  427  TRP427      0.0810
    108  CE3       44.0370   46.1070   34.5460 C.ar  427  TRP427      0.0012
    109  CZ2       45.6900   46.6650   36.7860 C.ar  427  TRP427      0.0191
    110  CZ3       44.0260   45.2950   35.6820 C.ar  427  TRP427      0.0001
    111  CH2       44.8490   45.5830   36.7870 C.ar  427  TRP427      0.0015
    112  N         43.8690   46.8990   29.1020 N.am  428  GLU428     -0.1963
    113  CA        43.2680   47.0200   27.7670 C.3   428  GLU428      0.1733
    114  C         43.1990   48.4290   27.1960 C.2   428  GLU428      0.2616
    115  O         42.2690   48.7490   26.4580 O.2   428  GLU428     -0.2715
    116  CB        41.8510   46.4380   27.8090 C.3   428  GLU428      0.0429
    117  CG        41.7450   45.1720   28.6370 C.3   428  GLU428      0.1163
    118  CD        40.4320   44.4450   28.4350 C.2   428  GLU428      0.3649
    119  OE1       39.4470   44.7590   29.1390 O.co2 428  GLU428     -0.2457
    120  OE2       40.3820   43.5660   27.5520 O.co2 428  GLU428     -0.2457
    121  N         44.1840   49.2690   27.4860 N.am  429  GLU429     -0.1977
    122  CA        44.1030   50.6350   26.9950 C.3   429  GLU429      0.1602
    123  C         45.2800   51.1940   26.2150 C.2   429  GLU429      0.2287
    124  O         45.0910   52.0880   25.4020 O.2   429  GLU429     -0.2864
    125  CB        43.8140   51.5550   28.1770 C.3   429  GLU429      0.0415
    126  CG        42.8080   50.9680   29.1460 C.3   429  GLU429      0.1163
    127  CD        42.7320   51.7280   30.4450 C.2   429  GLU429      0.3649
    128  OE1       43.7990   52.0730   31.0080 O.co2 429  GLU429     -0.2457
    129  OE2       41.6010   51.9540   30.9180 O.co2 429  GLU429     -0.2457
    130  N         43.3310   56.5320   28.7430 N.3   510  ALA510     -0.1231
    131  CA        41.9500   56.3070   28.3150 C.3   510  ALA510      0.1694
    132  C         40.9170   56.8690   29.2870 C.2   510  ALA510      0.2592
    133  O         41.2590   57.4030   30.3470 O.2   510  ALA510     -0.2718
    134  CB        41.7060   54.8230   28.1210 C.3   510  ALA510      0.0304
    135  N         39.6490   56.7430   28.9140 N.am  511  ASN511     -0.1974
    136  CA        38.5440   57.2150   29.7420 C.3   511  ASN511      0.1688
    137  C         38.7230   58.6680   30.1870 C.2   511  ASN511      0.2292
    138  O         38.4140   59.0200   31.3270 O.2   511  ASN511     -0.2864
    139  CB        38.3980   56.3100   30.9660 C.3   511  ASN511      0.1181
    140  CG        38.3390   54.8370   30.5980 C.2   511  ASN511      0.2629
    141  OD1       37.3870   54.3780   29.9600 O.2   511  ASN511     -0.2716
    142  ND2       39.3660   54.0890   30.9910 N.am  511  ASN511     -0.0877
    143  N         44.7480   51.5080   39.7470 N.3   565  ARG565     -0.1245
    144  CA        45.4500   50.7730   38.7120 C.3   565  ARG565      0.1563
    145  C         46.6660   51.5680   38.2370 C.2   565  ARG565      0.2260
    146  O         47.6930   50.9950   37.8700 O.2   565  ARG565     -0.2867
    147  CB        44.5120   50.4910   37.5410 C.3   565  ARG565      0.0307
    148  CG        43.2850   49.6960   37.9310 C.3   565  ARG565      0.0489
    149  CD        42.5280   49.2410   36.7020 C.3   565  ARG565      0.2205
    150  NE        42.1740   50.3530   35.8390 N.pl3 565  ARG565     -0.0865
    151  CZ        41.6330   50.2310   34.6320 C.cat 565  ARG565      0.5346
    152  NH1       41.3460   51.2900   33.9180 N.pl3 565  ARG565      0.1354
    153  NH2       41.3730   49.0480   34.1330 N.pl3 565  ARG565      0.1354
    154  N         38.6780   55.2460   34.5790 N.3   571  TYR571     -0.1241
    155  CA        37.6630   54.2010   34.4890 C.3   571  TYR571      0.1605
    156  C         36.8880   54.0100   35.8020 C.2   571  TYR571      0.2264
    157  O         37.1360   53.0640   36.5550 O.2   571  TYR571     -0.2867
    158  CB        38.3380   52.8910   34.0690 C.3   571  TYR571      0.0534
    159  CG        37.3890   51.7520   33.7950 C.ar  571  TYR571     -0.0201
    160  CD1       37.4900   50.5500   34.5050 C.ar  571  TYR571     -0.0009
    161  CD2       36.3990   51.8580   32.8120 C.ar  571  TYR571     -0.0009
    162  CE1       36.6310   49.4800   34.2450 C.ar  571  TYR571      0.0417
    163  CE2       35.5300   50.7890   32.5440 C.ar  571  TYR571      0.0417
    164  CZ        35.6530   49.6030   33.2650 C.ar  571  TYR571      0.1957
    165  OH        34.8130   48.5340   33.0160 O.3   571  TYR571     -0.2866
    166  N         29.3940   55.9920   35.6930 N.3   580  TYR580     -0.1241
    167  CA        30.3850   56.0310   34.6240 C.3   580  TYR580      0.1605
    168  C         29.7010   55.8890   33.2680 C.2   580  TYR580      0.2264
    169  O         28.8600   55.0090   33.0810 O.2   580  TYR580     -0.2867
    170  CB        31.3880   54.8890   34.7960 C.3   580  TYR580      0.0534
    171  CG        32.3160   54.6920   33.6130 C.ar  580  TYR580     -0.0201
    172  CD1       33.4710   55.4650   33.4660 C.ar  580  TYR580     -0.0009
    173  CD2       32.0340   53.7380   32.6340 C.ar  580  TYR580     -0.0009
    174  CE1       34.3180   55.2910   32.3780 C.ar  580  TYR580      0.0417
    175  CE2       32.8750   53.5560   31.5380 C.ar  580  TYR580      0.0417
    176  CZ        34.0140   54.3350   31.4180 C.ar  580  TYR580      0.1957
    177  OH        34.8460   54.1560   30.3380 O.3   580  TYR580     -0.2866
    178  N         40.9200   49.1630   43.5740 N.3   589  TRP589     -0.1241
    179  CA        40.6420   47.7790   43.1920 C.3   589  TRP589      0.1605
    180  C         41.0190   46.7540   44.2620 C.2   589  TRP589      0.2264
    181  O         42.2040   46.4980   44.4890 O.2   589  TRP589     -0.2867
    182  CB        41.3910   47.4330   41.8960 C.3   589  TRP589      0.0550
    183  CG        40.8240   48.0890   40.6650 C.ar  589  TRP589      0.0003
    184  CD1       40.5190   49.4100   40.5080 C.ar  589  TRP589      0.0946
    185  CD2       40.4970   47.4510   39.4200 C.ar  589  TRP589      0.0152
    186  NE1       40.0260   49.6330   39.2480 N.ar  589  TRP589     -0.2442
    187  CE2       39.9980   48.4490   38.5600 C.ar  589  TRP589      0.0810
    188  CE3       40.5800   46.1290   38.9480 C.ar  589  TRP589      0.0012
    189  CZ2       39.5760   48.1720   37.2480 C.ar  589  TRP589      0.0191
    190  CZ3       40.1630   45.8530   37.6390 C.ar  589  TRP589      0.0001
    191  CH2       39.6680   46.8700   36.8090 C.ar  589  TRP589      0.0015
    192  N         34.7740   45.0310   41.5200 N.3   626  GLU626     -0.1245
    193  CA        35.9870   45.4220   40.8180 C.3   626  GLU626      0.1567
    194  C         36.6350   46.6320   41.4960 C.2   626  GLU626      0.2260
    195  O         37.8560   46.7000   41.6430 O.2   626  GLU626     -0.2867
    196  CB        35.6410   45.7640   39.3620 C.3   626  GLU626      0.0388
    197  CG        36.7890   46.3630   38.5560 C.3   626  GLU626      0.1160
    198  CD        36.3510   46.8020   37.1670 C.2   626  GLU626      0.3649
    199  OE1       36.5910   46.0540   36.1950 O.co2 626  GLU626     -0.2457
    200  OE2       35.7640   47.8990   37.0480 O.co2 626  GLU626     -0.2457
    201  N         33.4900   40.4020   40.8820 N.3   642  LEU642     -0.1245
    202  CA        34.5500   40.3690   39.8810 C.3   642  LEU642      0.1561
    203  C         35.2310   39.0350   40.1220 C.2   642  LEU642      0.2260
    204  O         36.0040   38.8890   41.0740 O.2   642  LEU642     -0.2867
    205  CB        35.5520   41.5100   40.0650 C.3   642  LEU642      0.0270
    206  CG        36.6400   41.5230   38.9810 C.3   642  LEU642      0.0019
    207  CD1       35.9980   41.7910   37.6190 C.3   642  LEU642      0.0001
    208  CD2       37.6850   42.5930   39.2910 C.3   642  LEU642      0.0001
    209  N         37.7150   37.5560   38.9300 N.3   644  TRP644     -0.1241
    210  CA        39.1600   37.6280   39.0600 C.3   644  TRP644      0.1605
    211  C         39.5290   38.0110   40.5030 C.2   644  TRP644      0.2264
    212  O         40.4580   37.4500   41.0850 O.2   644  TRP644     -0.2867
    213  CB        39.6970   38.6520   38.0590 C.3   644  TRP644      0.0550
    214  CG        41.1820   38.8280   38.0500 C.ar  644  TRP644      0.0003
    215  CD1       42.1010   38.1690   38.8180 C.ar  644  TRP644      0.0946
    216  CD2       41.9200   39.7640   37.2610 C.ar  644  TRP644      0.0152
    217  NE1       43.3620   38.6370   38.5610 N.ar  644  TRP644     -0.2442
    218  CE2       43.2820   39.6180   37.6070 C.ar  644  TRP644      0.0810
    219  CE3       41.5650   40.7140   36.2960 C.ar  644  TRP644      0.0012
    220  CZ2       44.2940   40.3910   37.0160 C.ar  644  TRP644      0.0191
    221  CZ3       42.5710   41.4830   35.7090 C.ar  644  TRP644      0.0001
    222  CH2       43.9160   41.3140   36.0730 C.ar  644  TRP644      0.0015
@<TRIPOS>BOND
     1    66    67    2
     2    66    65    1
     3    65    64    1
     4    65    68    1
     5    70    69   ar
     6    70    72   ar
     7    55    56    1
     8    68    69    1
     9    69    71   ar
    10    62    61    2
    11    72    73   ar
    12    59    56    1
    13    59    60    1
    14    56    57    1
    15    86    84   am
    16    78    79    1
    17    84    85    2
    18    84    83    1
    19    61    60    1
    20    61    63   am
    21    71    73   ar
    22    71    74   ar
    23    73    75   ar
    24    57    58    2
    25    83    82    1
    26    82    79    1
    27    79    80    1
    28   124   123    2
    29    75    77   ar
    30    74    76   ar
    31    81    80    2
    32   123   122    1
    33   115   114    2
    34    77    76   ar
    35   122   121    1
    36   122   125    1
    37   114   121   am
    38   114   113    1
    39   120   118   ar
    40   113   116    1
    41   113   112    1
    42   116   117    1
    43   134   131    1
    44   125   126    1
    45   131   130    1
    46   131   132    1
    47   118   117    1
    48   118   119   ar
    49     6     7    1
    50    30    28   ar
    51    30    31   ar
    52    28    27   ar
    53    23    22    1
    54    23    24    1
    55    23    26    1
    56   135   132   am
    57   135   136    1
    58    31    33   ar
    59    31    29   ar
    60    33    35   ar
    61   112   100   am
    62   126   127    1
    63   132   133    2
    64    24    25    2
    65    27    29   ar
    66    27    26    1
    67    29    32   ar
    68     9     8    2
    69    35    34   ar
    70   136   137    1
    71   136   139    1
    72     7     8    1
    73   141   140    2
    74    45    44    1
    75    46    44    1
    76    32    34   ar
    77   101   100    2
    78   137   138    2
    79   100    99    1
    80    36    37    1
    81     8    10   am
    82    87    88    1
    83   177   176    1
    84   127   129   ar
    85   127   128   ar
    86   140   139    1
    87   140   142   am
    88    44    43    2
    89    88    89    1
    90    88    91    1
    91    89    98   am
    92    89    90    2
    93    98    99    1
    94   176   175   ar
    95   176   174   ar
    96    10    11    1
    97    40    37    1
    98    40    41    1
    99    37    38    1
   100    99   102    1
   101   175   173   ar
   102    12    11    1
   103    12    13    2
   104    11    14    1
   105    43    42    1
   106    91    92    1
   107   102   103    1
   108   174   172   ar
   109   163   161   ar
   110   163   164   ar
   111   173   171   ar
   112    16    18   ar
   113    16    15   ar
   114    42    41    1
   115    38    47   am
   116    38    39    2
   117    47    48    1
   118    18    20   ar
   119   161   159   ar
   120    54    52   ar
   121   165   164    1
   122   169   168    2
   123     1     2    1
   124   164   162   ar
   125   168   167    1
   126    14    15    1
   127    92    93    1
   128    15    17   ar
   129     5     2    1
   130   172   171   ar
   131   103   104   ar
   132   103   105   ar
   133   171   170    1
   134    20    21    1
   135    20    19   ar
   136    52    51    1
   137    52    53   ar
   138    51    48    1
   139   159   158    1
   140   159   160   ar
   141   152   151    1
   142    48    49    1
   143   158   155    1
   144   104   106   ar
   145     2     3    1
   146   153   151    1
   147    49    50    2
   148   162   160   ar
   149    17    19   ar
   150   155   154    1
   151   155   156    1
   152    93    94    1
   153   105   108   ar
   154   105   107   ar
   155   108   110   ar
   156   167   170    1
   157   167   166    1
   158   151   150    2
   159     3     4    2
   160   106   107   ar
   161   107   109   ar
   162   110   111   ar
   163   221   222   ar
   164   221   219   ar
   165    94    95    2
   166   156   157    2
   167   150   149    1
   168   222   220   ar
   169   199   198   ar
   170   219   216   ar
   171   149   148    1
   172   109   111   ar
   173   191   189   ar
   174   191   190   ar
   175    95    97    1
   176    95    96    1
   177   220   218   ar
   178   200   198   ar
   179   198   197    1
   180   189   187   ar
   181   216   218   ar
   182   216   214   ar
   183   147   148    1
   184   147   144    1
   185   218   217   ar
   186   207   206    1
   187   190   188   ar
   188   146   145    2
   189   214   213    1
   190   214   215   ar
   191   213   210    1
   192   145   144    1
   193   197   196    1
   194   187   186   ar
   195   187   185   ar
   196   217   215   ar
   197   144   143    1
   198   209   210    1
   199   188   185   ar
   200   206   208    1
   201   206   205    1
   202   210   211    1
   203   186   184   ar
   204   196   193    1
   205   185   183   ar
   206   202   205    1
   207   202   203    1
   208   202   201    1
   209   203   204    2
   210   211   212    2
   211   184   183   ar
   212   183   182    1
   213   193   194    1
   214   193   192    1
   215   194   195    2
   216   182   179    1
   217   179   178    1
   218   179   180    1
   219   180   181    2
