@<TRIPOS>MOLECULE
tmp/1lgnE00.pdb
 106 98 0 0 0
SMALL
GASTEIGER

@<TRIPOS>ATOM
      1  N        140.3220   14.3270   46.0270 N.3    58  ASP58      -0.1225
      2  CA       141.0750   15.5240   45.6510 C.3    58  ASP58       0.1805
      3  C        140.4360   16.6900   46.3940 C.2    58  ASP58       0.2597
      4  O        139.2360   16.6880   46.6240 O.2    58  ASP58      -0.2718
      5  CB       140.9970   15.7580   44.1370 C.3    58  ASP58       0.1424
      6  CG       141.7940   16.9840   43.6790 C.2    58  ASP58       0.3668
      7  OD1      142.7420   17.4160   44.3830 O.co2  58  ASP58      -0.2456
      8  OD2      141.4750   17.5050   42.5880 O.co2  58  ASP58      -0.2456
      9  N        141.2330   17.6760   46.7770 N.am   59  ASN59      -0.1974
     10  CA       140.7160   18.8310   47.5040 C.3    59  ASN59       0.1688
     11  C        139.8820   18.4070   48.7060 C.2    59  ASN59       0.2292
     12  O        138.7240   18.7860   48.8220 O.2    59  ASN59      -0.2864
     13  CB       139.8730   19.7360   46.5950 C.3    59  ASN59       0.1181
     14  CG       140.6080   20.1610   45.3430 C.2    59  ASN59       0.2629
     15  OD1      141.8380   20.1470   45.2850 O.2    59  ASN59      -0.2716
     16  ND2      139.8490   20.5360   44.3220 N.am   59  ASN59      -0.0877
     17  N        141.4070   22.2580   51.2600 N.3    62  LEU62      -0.1245
     18  CA       142.2620   23.1730   50.4950 C.3    62  LEU62       0.1561
     19  C        141.9310   24.6470   50.7840 C.2    62  LEU62       0.2260
     20  O        140.7660   25.0380   50.7610 O.2    62  LEU62      -0.2867
     21  CB       142.0740   22.8730   48.9910 C.3    62  LEU62       0.0270
     22  CG       142.4530   23.8780   47.9010 C.3    62  LEU62       0.0019
     23  CD1      143.9520   24.0810   47.8800 C.3    62  LEU62       0.0001
     24  CD2      141.9880   23.3960   46.5470 C.3    62  LEU62       0.0001
     25  N        142.4970   27.9930   49.2110 N.3    64  TYR64      -0.1241
     26  CA       142.9490   28.5230   47.9310 C.3    64  TYR64       0.1605
     27  C        142.6520   30.0030   47.7980 C.2    64  TYR64       0.2264
     28  O        141.6110   30.4550   48.2420 O.2    64  TYR64      -0.2867
     29  CB       142.2080   27.7640   46.8550 C.3    64  TYR64       0.0534
     30  CG       142.6940   27.9050   45.4410 C.ar   64  TYR64      -0.0201
     31  CD1      143.8350   27.2490   45.0020 C.ar   64  TYR64      -0.0009
     32  CD2      141.9670   28.6280   44.5160 C.ar   64  TYR64      -0.0009
     33  CE1      144.2300   27.3000   43.6610 C.ar   64  TYR64       0.0417
     34  CE2      142.3450   28.6860   43.1950 C.ar   64  TYR64       0.0417
     35  CZ       143.4720   28.0190   42.7620 C.ar   64  TYR64       0.1957
     36  OH       143.8190   28.0830   41.4250 O.3    64  TYR64      -0.2866
     37  N        141.7700   32.8910   45.3250 N.3    66  GLU66      -0.1245
     38  CA       141.2090   33.2270   44.0250 C.3    66  GLU66       0.1567
     39  C        141.8400   34.4290   43.3350 C.2    66  GLU66       0.2260
     40  O        142.1210   34.4020   42.1340 O.2    66  GLU66      -0.2867
     41  CB       139.7180   33.4970   44.1990 C.3    66  GLU66       0.0388
     42  CG       138.9350   32.3400   44.7600 C.3    66  GLU66       0.1160
     43  CD       138.8360   31.1740   43.7820 C.2    66  GLU66       0.3649
     44  OE1      139.0170   31.3890   42.5480 O.co2  66  GLU66      -0.2457
     45  OE2      138.5740   30.0390   44.2520 O.co2  66  GLU66      -0.2457
     46  N        137.8840   24.6940   50.6120 N.3    74  TYR74      -0.1241
     47  CA       137.2740   23.4850   50.0590 C.3    74  TYR74       0.1605
     48  C        137.2060   22.4260   51.1490 C.2    74  TYR74       0.2264
     49  O        138.1670   22.2290   51.8830 O.2    74  TYR74      -0.2867
     50  CB       138.1080   22.9090   48.9200 C.3    74  TYR74       0.0534
     51  CG       138.0550   23.6260   47.5920 C.ar   74  TYR74      -0.0201
     52  CD1      138.6800   24.8530   47.4010 C.ar   74  TYR74      -0.0009
     53  CD2      137.4160   23.0450   46.5060 C.ar   74  TYR74      -0.0009
     54  CE1      138.6750   25.4800   46.1470 C.ar   74  TYR74       0.0417
     55  CE2      137.4050   23.6610   45.2500 C.ar   74  TYR74       0.0417
     56  CZ       138.0340   24.8750   45.0740 C.ar   74  TYR74       0.1957
     57  OH       138.0070   25.4720   43.8310 O.3    74  TYR74      -0.2866
     58  N        133.0660   23.9940   48.0180 N.3    79  LYS79      -0.1245
     59  CA       133.7570   25.2610   48.1780 C.3    79  LYS79       0.1561
     60  C        132.9760   26.4700   48.6750 C.2    79  LYS79       0.2260
     61  O        131.8120   26.6380   48.3350 O.2    79  LYS79      -0.2867
     62  CB       134.3190   25.5830   46.8040 C.3    79  LYS79       0.0271
     63  CG       134.8650   26.9510   46.5910 C.3    79  LYS79       0.0035
     64  CD       135.1620   27.1050   45.1220 C.3    79  LYS79       0.0206
     65  CE       136.0490   28.2970   44.8700 C.3    79  LYS79       0.1093
     66  NZ       136.3160   28.4860   43.4140 N.3    79  LYS79      -0.1314
     67  N        149.7450   22.6160   44.4730 N.3   136  GLU136     -0.1245
     68  CA       148.3650   22.1900   44.6290 C.3   136  GLU136      0.1567
     69  C        148.2520   20.7690   44.0790 C.2   136  GLU136      0.2260
     70  O        148.4570   20.5180   42.8770 O.2   136  GLU136     -0.2867
     71  CB       147.3910   23.1600   43.9320 C.3   136  GLU136      0.0388
     72  CG       145.9340   23.1130   44.4420 C.3   136  GLU136      0.1160
     73  CD       145.1370   21.9230   43.9060 C.2   136  GLU136      0.3649
     74  OE1      145.1900   21.6830   42.6730 O.co2 136  GLU136     -0.2457
     75  OE2      144.4490   21.2490   44.7210 O.co2 136  GLU136     -0.2457
     76  N        146.6710   17.3140   42.8520 N.3   138  ASP138     -0.1239
     77  CA       145.5080   16.8700   42.1050 C.3   138  ASP138      0.1674
     78  C        145.4730   15.3380   42.2090 C.2   138  ASP138      0.2266
     79  O        144.6660   14.6670   41.5620 O.2   138  ASP138     -0.2867
     80  CB       145.5650   17.3420   40.6500 C.3   138  ASP138      0.1410
     81  CG       145.0210   18.7560   40.4680 C.2   138  ASP138      0.3668
     82  OD1      144.4660   19.3170   41.4400 O.co2 138  ASP138     -0.2456
     83  OD2      145.1320   19.2940   39.3410 O.co2 138  ASP138     -0.2456
     84  N        150.1230   21.5210   39.4620 N.3   145  ASP145     -0.1239
     85  CA       149.8890   22.4730   38.4050 C.3   145  ASP145      0.1674
     86  C        150.7530   23.7070   38.5800 C.2   145  ASP145      0.2266
     87  O        150.7520   24.2620   39.6970 O.2   145  ASP145     -0.2867
     88  CB       148.4180   22.8740   38.3490 C.3   145  ASP145      0.1410
     89  CG       147.5910   21.8980   37.5380 C.2   145  ASP145      0.3668
     90  OD1      147.7860   21.8390   36.3050 O.co2 145  ASP145     -0.2456
     91  OD2      146.7500   21.1930   38.1320 O.co2 145  ASP145     -0.2456
     92  N        150.5700   26.6820   37.3400 N.3   147  SER147     -0.1202
     93  CA       149.7650   27.8850   37.4760 C.3   147  SER147      0.2020
     94  C        149.0550   28.0390   38.8220 C.2   147  SER147      0.2618
     95  O        148.3180   29.0090   39.0320 O.2   147  SER147     -0.2717
     96  CB       148.7670   27.9590   36.3310 C.3   147  SER147      0.2103
     97  OG       148.0860   26.7200   36.1890 O.3   147  SER147     -0.2182
     98  N        149.2760   27.0950   39.7320 N.am  148  GLN148     -0.1979
     99  CA       148.6660   27.1810   41.0500 C.3   148  GLN148      0.1601
    100  C        149.7400   27.1970   42.1220 C.2   148  GLN148      0.2287
    101  O        149.4380   27.2830   43.3090 O.2   148  GLN148     -0.2864
    102  CB       147.7010   26.0250   41.2850 C.3   148  GLN148      0.0394
    103  CG       146.4840   26.0580   40.3990 C.3   148  GLN148      0.0908
    104  CD       145.5200   24.9420   40.6930 C.2   148  GLN148      0.2608
    105  OE1      145.8960   23.7730   40.7410 O.2   148  GLN148     -0.2717
    106  NE2      144.2600   25.2940   40.8820 N.am  148  GLN148     -0.0878
@<TRIPOS>BOND
     1    97    96    1
     2    90    89   ar
     3    96    93    1
     4    92    93    1
     5    93    94    1
     6    89    91   ar
     7    89    88    1
     8    88    85    1
     9    85    86    1
    10    85    84    1
    11    86    87    2
    12    94    95    2
    13    94    98   am
    14    83    81   ar
    15    98    99    1
    16   103   104    1
    17   103   102    1
    18    81    80    1
    19    81    82   ar
    20    80    77    1
    21   104   105    2
    22   104   106   am
    23    99   102    1
    24    99   100    1
    25    36    35    1
    26    79    78    2
    27    77    78    1
    28    77    76    1
    29   100   101    2
    30    40    39    2
    31    44    43   ar
    32     8     6   ar
    33    74    73   ar
    34    35    34   ar
    35    35    33   ar
    36    70    69    2
    37    34    32   ar
    38    39    38    1
    39    66    65    1
    40    33    31   ar
    41     6     5    1
    42     6     7   ar
    43    43    45   ar
    44    43    42    1
    45    57    56    1
    46    73    72    1
    47    73    75   ar
    48    71    72    1
    49    71    68    1
    50    38    41    1
    51    38    37    1
    52    69    68    1
    53     5     2    1
    54    41    42    1
    55    16    14   am
    56    67    68    1
    57    32    30   ar
    58    65    64    1
    59    31    30   ar
    60    56    55   ar
    61    56    54   ar
    62    64    63    1
    63    55    53   ar
    64    15    14    2
    65    14    13    1
    66    30    29    1
    67     2     1    1
    68     2     3    1
    69    54    52   ar
    70     3     4    2
    71     3     9   am
    72    53    51   ar
    73    24    22    1
    74    63    62    1
    75    13    10    1
    76     9    10    1
    77    62    59    1
    78    29    26    1
    79    52    51   ar
    80    10    11    1
    81    51    50    1
    82    27    26    1
    83    27    28    2
    84    23    22    1
    85    22    21    1
    86    26    25    1
    87    58    59    1
    88    59    60    1
    89    61    60    2
    90    11    12    2
    91    50    47    1
    92    21    18    1
    93    47    46    1
    94    47    48    1
    95    18    19    1
    96    18    17    1
    97    20    19    2
    98    48    49    2
