@<TRIPOS>MOLECULE
tmp/1lgrE00.pdb
 139 133 0 0 0
SMALL
GASTEIGER

@<TRIPOS>ATOM
      1  N        -24.9450  -51.6580  -78.2220 N.3   119  LEU119     -0.1245
      2  CA       -26.0040  -50.6970  -78.4180 C.3   119  LEU119      0.1561
      3  C        -26.7360  -50.2700  -77.1410 C.2   119  LEU119      0.2260
      4  O        -27.2320  -51.0760  -76.3380 O.2   119  LEU119     -0.2867
      5  CB       -26.9710  -51.2780  -79.4100 C.3   119  LEU119      0.0270
      6  CG       -26.8250  -50.8280  -80.8590 C.3   119  LEU119      0.0019
      7  CD1      -25.3900  -50.7500  -81.3720 C.3   119  LEU119      0.0001
      8  CD2      -27.5980  -51.8370  -81.6460 C.3   119  LEU119      0.0001
      9  N        -29.5590  -47.5490  -75.3570 N.3   121  GLY121     -0.1210
     10  CA       -30.7540  -46.7350  -75.4970 C.3   121  GLY121      0.1940
     11  C        -31.2660  -46.2130  -74.1530 C.2   121  GLY121      0.2454
     12  O        -32.0660  -46.8820  -73.4810 O.2   121  GLY121     -0.2732
     13  N        -30.7760  -45.0620  -73.7020 N.am  122  PRO122     -0.2717
     14  CA       -31.0860  -44.4620  -72.4220 C.3   122  PRO122      0.1536
     15  C        -32.4700  -43.8050  -72.4920 C.2   122  PRO122      0.2601
     16  O        -32.8090  -43.1710  -73.4950 O.2   122  PRO122     -0.2715
     17  CB       -29.9490  -43.4930  -72.2160 C.3   122  PRO122      0.0310
     18  CG       -29.0650  -43.6630  -73.4150 C.3   122  PRO122      0.0237
     19  CD       -30.0110  -44.1270  -74.4820 C.3   122  PRO122      0.0939
     20  N        -33.3360  -43.9340  -71.4920 N.am  123  GLU123     -0.1932
     21  CA       -34.6290  -43.2460  -71.5060 C.3   123  GLU123      0.1818
     22  C        -34.6030  -42.1230  -70.4320 C.2   123  GLU123      0.2332
     23  O        -35.2300  -42.3240  -69.3720 O.2   123  GLU123     -0.2860
     24  CB       -35.7760  -44.2760  -71.2100 C.2   123  GLU123      0.0097
     25  CG       -36.0150  -45.5800  -72.0100 C.2   123  GLU123      0.0837
     26  CD       -37.0320  -46.5940  -71.3740 C.2   123  GLU123      0.3877
     27  OE1      -36.8280  -47.0930  -70.2650 O.co2 123  GLU123     -0.2406
     28  OE2      -38.0610  -46.8990  -71.9850 O.co2 123  GLU123     -0.2406
     29  N        -38.1470  -40.6220  -81.2490 N.3   201  GLU201     -0.1245
     30  CA       -39.1340  -41.6680  -81.4670 C.3   201  GLU201      0.1567
     31  C        -40.5020  -41.3520  -80.9040 C.2   201  GLU201      0.2260
     32  O        -41.5330  -41.7420  -81.4460 O.2   201  GLU201     -0.2867
     33  CB       -38.7160  -42.9470  -80.8360 C.3   201  GLU201      0.0388
     34  CG       -37.3240  -43.2810  -81.2540 C.3   201  GLU201      0.1160
     35  CD       -36.9940  -44.7190  -81.0000 C.2   201  GLU201      0.3649
     36  OE1      -37.2740  -45.2240  -79.9200 O.co2 201  GLU201     -0.2457
     37  OE2      -36.4580  -45.3340  -81.9070 O.co2 201  GLU201     -0.2457
     38  N        -38.2880  -39.5010  -75.9320 N.3   216  ALA216     -0.1231
     39  CA       -37.7090  -40.7980  -76.2700 C.3   216  ALA216      0.1694
     40  C        -36.8550  -40.7510  -77.5320 C.2   216  ALA216      0.2592
     41  O        -37.3100  -40.3470  -78.6060 O.2   216  ALA216     -0.2718
     42  CB       -38.7960  -41.8160  -76.5010 C.3   216  ALA216      0.0304
     43  N        -35.6340  -41.2580  -77.4630 N.am  217  THR217     -0.1953
     44  CA       -34.7090  -41.0710  -78.5740 C.3   217  THR217      0.1897
     45  C        -34.0510  -42.3520  -79.1450 C.2   217  THR217      0.2313
     46  O        -33.7290  -43.2600  -78.3780 O.2   217  THR217     -0.2863
     47  CB       -33.8000  -39.9790  -77.9410 C.3   217  THR217      0.1794
     48  OG1      -33.6420  -39.0440  -78.9820 O.3   217  THR217     -0.2208
     49  CG2      -32.5080  -40.4570  -77.3270 C.3   217  THR217      0.0378
     50  N        -31.6630  -45.2860  -80.3920 N.3   219  PHE219     -0.1241
     51  CA       -30.4200  -45.8560  -79.9000 C.3   219  PHE219      0.1605
     52  C        -29.1690  -45.5780  -80.7060 C.2   219  PHE219      0.2264
     53  O        -29.1400  -45.2100  -81.8820 O.2   219  PHE219     -0.2867
     54  CB       -30.5420  -47.3910  -79.7710 C.3   219  PHE219      0.0534
     55  CG       -30.5870  -48.1420  -81.1030 C.ar  219  PHE219     -0.0203
     56  CD1      -29.4170  -48.4820  -81.7980 C.ar  219  PHE219     -0.0042
     57  CD2      -31.8240  -48.4550  -81.6570 C.ar  219  PHE219     -0.0042
     58  CE1      -29.4890  -49.1140  -83.0370 C.ar  219  PHE219     -0.0003
     59  CE2      -31.8930  -49.0920  -82.8940 C.ar  219  PHE219     -0.0003
     60  CZ       -30.7300  -49.4160  -83.5830 C.ar  219  PHE219     -0.0000
     61  N        -31.5810  -49.2810  -72.0200 N.3   265  HIS265     -0.1226
     62  CA       -31.7660  -50.4840  -72.7980 C.3   265  HIS265      0.1752
     63  C        -30.4380  -50.8930  -73.4090 C.2   265  HIS265      0.2596
     64  O        -29.7430  -50.0430  -73.9780 O.2   265  HIS265     -0.2718
     65  CB       -32.6580  -50.2840  -73.9220 C.3   265  HIS265      0.0759
     66  CG       -34.0910  -50.3210  -73.5500 C.ar  265  HIS265      0.0818
     67  ND1      -34.8570  -51.3920  -73.5960 N.ar  265  HIS265     -0.2268
     68  CD2      -34.8570  -49.2440  -73.2400 C.ar  265  HIS265      0.1154
     69  CE1      -36.0750  -51.0070  -73.3760 C.ar  265  HIS265      0.1986
     70  NE2      -36.0740  -49.7070  -73.1660 N.ar  265  HIS265     -0.2212
     71  N        -30.0450  -52.1490  -73.2760 N.am  266  MET266     -0.1965
     72  CA       -28.8160  -52.6130  -73.8830 C.3   266  MET266      0.1736
     73  C        -28.9560  -53.8290  -74.7730 C.2   266  MET266      0.2617
     74  O        -29.8130  -54.7080  -74.5960 O.2   266  MET266     -0.2715
     75  CB       -27.8090  -52.9640  -72.8480 C.3   266  MET266      0.0427
     76  CG       -27.3090  -51.7330  -72.1830 C.3   266  MET266      0.0599
     77  SD       -26.4700  -52.2380  -70.6780 S.3   266  MET266     -0.1393
     78  CE       -27.8520  -52.9610  -69.8470 C.3   266  MET266      0.0692
     79  N        -28.0570  -53.8360  -75.7510 N.am  267  SER267     -0.1950
     80  CA       -27.9410  -54.9550  -76.6730 C.3   267  SER267      0.1924
     81  C        -26.5590  -55.1560  -77.2760 C.2   267  SER267      0.2314
     82  O        -25.8090  -54.2160  -77.5340 O.2   267  SER267     -0.2863
     83  CB       -28.8780  -54.8270  -77.8430 C.3   267  SER267      0.2116
     84  OG       -28.8350  -56.1260  -78.3790 O.3   267  SER267     -0.2180
     85  N        -27.9080  -59.8620  -83.6200 N.3   274  ASN274     -0.1240
     86  CA       -28.1390  -59.6140  -82.2170 C.3   274  ASN274      0.1653
     87  C        -27.9350  -60.8070  -81.2830 C.2   274  ASN274      0.2266
     88  O        -28.8310  -61.6260  -81.0580 O.2   274  ASN274     -0.2867
     89  CB       -29.5520  -59.0580  -82.0830 C.3   274  ASN274      0.1155
     90  CG       -30.0170  -58.8180  -80.6550 C.2   274  ASN274      0.2627
     91  OD1      -29.2900  -58.8370  -79.6760 O.2   274  ASN274     -0.2716
     92  ND2      -31.2730  -58.6330  -80.4080 N.am  274  ASN274     -0.0877
     93  N        -35.6030  -55.4250  -66.6910 N.3   334  ARG334     -0.1245
     94  CA       -36.7710  -55.8060  -67.4770 C.3   334  ARG334      0.1563
     95  C        -36.3490  -56.3470  -68.8490 C.2   334  ARG334      0.2260
     96  O        -35.4870  -55.7980  -69.5470 O.2   334  ARG334     -0.2867
     97  CB       -37.6720  -54.5870  -67.6340 C.3   334  ARG334      0.0307
     98  CG       -38.5300  -54.4010  -68.8760 C.3   334  ARG334      0.0489
     99  CD       -39.0540  -52.9900  -68.7130 C.3   334  ARG334      0.2205
    100  NE       -39.3100  -52.2680  -69.9530 N.pl3 334  ARG334     -0.0865
    101  CZ       -40.4970  -52.4320  -70.5430 C.cat 334  ARG334      0.5346
    102  NH1      -41.4540  -53.2020  -70.0020 N.pl3 334  ARG334      0.1354
    103  NH2      -40.7580  -51.7990  -71.6780 N.pl3 334  ARG334      0.1354
    104  N        -35.6270  -59.4320  -83.4140 N.3   342  LYS342     -0.1231
    105  CA       -34.2390  -59.4470  -82.9700 C.3   342  LYS342      0.1693
    106  C        -33.7490  -58.0470  -82.5850 C.2   342  LYS342      0.2592
    107  O        -32.5820  -57.6670  -82.5930 O.2   342  LYS342     -0.2718
    108  CB       -33.3490  -60.0450  -84.0670 C.3   342  LYS342      0.0285
    109  CG       -33.7990  -59.8990  -85.5230 C.3   342  LYS342      0.0035
    110  CD       -33.6430  -58.5150  -86.1550 C.3   342  LYS342      0.0206
    111  CE       -32.1910  -58.2450  -86.5310 C.3   342  LYS342      0.1093
    112  NZ       -31.6610  -59.3520  -87.3080 N.3   342  LYS342     -0.1314
    113  N        -34.7750  -57.2390  -82.3420 N.am  343  ALA343     -0.1966
    114  CA       -34.6740  -56.0910  -81.4650 C.3   343  ALA343      0.1728
    115  C        -34.7670  -56.5910  -79.9940 C.2   343  ALA343      0.2616
    116  O        -35.2950  -55.9430  -79.0980 O.2   343  ALA343     -0.2715
    117  CB       -35.8230  -55.1480  -81.7930 C.3   343  ALA343      0.0334
    118  N        -34.3930  -57.8550  -79.7420 N.am  344  ARG344     -0.1963
    119  CA       -34.2570  -58.4320  -78.4140 C.3   344  ARG344      0.1729
    120  C        -33.1930  -57.7020  -77.6030 C.2   344  ARG344      0.2616
    121  O        -32.0750  -57.4520  -78.0600 O.2   344  ARG344     -0.2715
    122  CB       -33.8740  -59.8930  -78.5560 C.3   344  ARG344      0.0348
    123  CG       -34.2870  -60.7670  -77.3920 C.3   344  ARG344      0.0492
    124  CD       -35.7620  -61.1110  -77.5160 C.3   344  ARG344      0.2205
    125  NE       -35.9950  -62.0330  -78.6170 N.pl3 344  ARG344     -0.0865
    126  CZ       -37.2240  -62.2800  -79.0940 C.cat 344  ARG344      0.5346
    127  NH1      -38.3180  -61.6940  -78.5970 N.pl3 344  ARG344      0.1354
    128  NH2      -37.3690  -63.1500  -80.0920 N.pl3 344  ARG344      0.1354
    129  N        -33.5130  -57.3580  -76.3750 N.am  345  ARG345     -0.1977
    130  CA       -32.6010  -56.5650  -75.5590 C.3   345  ARG345      0.1597
    131  C        -32.8820  -56.6700  -74.0770 C.2   345  ARG345      0.2287
    132  O        -33.9460  -57.1210  -73.6550 O.2   345  ARG345     -0.2864
    133  CB       -32.7190  -55.1090  -75.9650 C.3   345  ARG345      0.0334
    134  CG       -34.1490  -54.6190  -75.7710 C.3   345  ARG345      0.0492
    135  CD       -34.3740  -53.3570  -76.5480 C.3   345  ARG345      0.2205
    136  NE       -35.6570  -52.7910  -76.1940 N.pl3 345  ARG345     -0.0865
    137  CZ       -36.6740  -52.7610  -77.0670 C.cat 345  ARG345      0.5346
    138  NH1      -36.5960  -53.2750  -78.3000 N.pl3 345  ARG345      0.1354
    139  NH2      -37.8180  -52.1940  -76.6950 N.pl3 345  ARG345      0.1354
@<TRIPOS>BOND
     1   112   111    1
     2   111   110    1
     3   110   109    1
     4   109   108    1
     5   108   105    1
     6    85    86    1
     7    60    58   ar
     8    60    59   ar
     9   104   105    1
    10    58    56   ar
    11   105   106    1
    12    59    57   ar
    13   107   106    2
    14   106   113   am
    15   113   114    1
    16    86    89    1
    17    86    87    1
    18    89    90    1
    19    37    35   ar
    20    53    52    2
    21    56    55   ar
    22   117   114    1
    23    57    55   ar
    24     8     6    1
    25    30    29    1
    26    30    31    1
    27    30    33    1
    28   114   115    1
    29    32    31    2
    30     7     6    1
    31    87    88    2
    32    34    35    1
    33    34    33    1
    34    55    54    1
    35    35    36   ar
    36     6     5    1
    37    52    51    1
    38    90    92   am
    39    90    91    2
    40    50    51    1
    41   128   126    1
    42   115   118   am
    43   115   116    2
    44    51    54    1
    45   118   119    1
    46     5     2    1
    47    45    44    1
    48    45    46    2
    49   126   125    2
    50   126   127    1
    51    48    47    1
    52   125   124    1
    53    41    40    2
    54    44    47    1
    55    44    43    1
    56   122   119    1
    57   122   123    1
    58     2     1    1
    59     2     3    1
    60   119   120    1
    61    84    83    1
    62   138   137    1
    63   121   120    2
    64    47    49    1
    65    83    80    1
    66   120   129   am
    67    82    81    2
    68    40    43   am
    69    40    39    1
    70   124   123    1
    71    81    80    1
    72     3     4    2
    73   137   139    1
    74   137   136    2
    75    80    79    1
    76   135   136    1
    77   135   134    1
    78    42    39    1
    79   129   130    1
    80    39    38    1
    81   133   134    1
    82   133   130    1
    83    79    73   am
    84   130   131    1
    85    10     9    1
    86    10    11    1
    87    73    74    2
    88    73    72    1
    89    19    13    1
    90    19    18    1
    91    11    13   am
    92    11    12    2
    93   131   132    2
    94    64    63    2
    95    65    66    1
    96    65    62    1
    97    72    71    1
    98    72    75    1
    99    13    14    1
   100    67    66   ar
   101    67    69   ar
   102    66    68   ar
   103    16    15    2
   104    18    17    1
   105    63    71   am
   106    63    62    1
   107    69    70   ar
   108    68    70   ar
   109    75    76    1
   110    62    61    1
   111    15    14    1
   112    15    20   am
   113    14    17    1
   114    76    77    1
   115    25    26    1
   116    25    24    2
   117    28    26   ar
   118   103   101    1
   119    21    20    1
   120    21    24    1
   121    21    22    1
   122    26    27   ar
   123    77    78    1
   124   101   102    1
   125   101   100    2
   126    22    23    2
   127   100    99    1
   128    96    95    2
   129    98    99    1
   130    98    97    1
   131    95    94    1
   132    97    94    1
   133    94    93    1
