@<TRIPOS>MOLECULE
tmp/1lgwA00.pdb
 117 108 0 0 0
SMALL
GASTEIGER

@<TRIPOS>ATOM
      1  N         24.5500    6.9160   12.2870 N.3    78  ILE78      -0.1245
      2  CA        24.1880    6.2390   11.0600 C.3    78  ILE78       0.1561
      3  C         23.0120    5.3080   11.2290 C.2    78  ILE78       0.2260
      4  O         22.0590    5.3240   10.4200 O.2    78  ILE78      -0.2867
      5  CB        25.3930    5.3760   10.5570 C.3    78  ILE78       0.0252
      6  CG1       26.2880    6.3140    9.7410 C.3    78  ILE78       0.0019
      7  CG2       24.8940    4.3090    9.5450 C.3    78  ILE78       0.0019
      8  CD1       27.7360    5.8420    9.5460 C.3    78  ILE78       0.0001
      9  N         20.2490    6.6990    5.9650 N.3    84  LEU84      -0.1245
     10  CA        21.5690    6.1410    6.0510 C.3    84  LEU84       0.1561
     11  C         21.6160    4.6450    6.3140 C.2    84  LEU84       0.2260
     12  O         22.3200    3.9270    5.6550 O.2    84  LEU84      -0.2867
     13  CB        22.3550    6.9090    7.1350 C.3    84  LEU84       0.0270
     14  CG        22.6050    8.3880    6.8330 C.3    84  LEU84       0.0019
     15  CD1       23.6890    8.9840    7.7470 C.3    84  LEU84       0.0001
     16  CD2       23.1350    8.6000    5.4160 C.3    84  LEU84       0.0001
     17  N         21.5160    1.9370    3.5710 N.3    87  VAL87      -0.1231
     18  CA        22.6850    1.9280    2.7350 C.3    87  VAL87       0.1692
     19  C         23.8550    1.2510    3.4450 C.2    87  VAL87       0.2592
     20  O         24.5910    0.3730    2.9470 O.2    87  VAL87      -0.2718
     21  CB        23.0020    3.3630    2.2110 C.3    87  VAL87       0.0266
     22  CG1       24.1770    3.2520    1.2360 C.3    87  VAL87       0.0020
     23  CG2       21.8210    4.0950    1.5260 C.3    87  VAL87       0.0020
     24  N         24.0890    1.7400    4.6250 N.am   88  TYR88      -0.1976
     25  CA        25.1670    1.2460    5.4550 C.3    88  TYR88       0.1639
     26  C         25.0770   -0.2540    5.6220 C.2    88  TYR88       0.2290
     27  O         26.0470   -1.0100    5.5720 O.2    88  TYR88      -0.2864
     28  CB        24.9330    1.8640    6.8420 C.3    88  TYR88       0.0560
     29  CG        26.0380    1.4860    7.7980 C.ar   88  TYR88      -0.0198
     30  CD1       27.3070    2.0360    7.6490 C.ar   88  TYR88      -0.0009
     31  CD2       25.8480    0.4690    8.7220 C.ar   88  TYR88      -0.0009
     32  CE1       28.3310    1.6880    8.5220 C.ar   88  TYR88       0.0417
     33  CE2       26.8520    0.1120    9.6130 C.ar   88  TYR88       0.0417
     34  CZ        28.0910    0.7310    9.5050 C.ar   88  TYR88       0.1957
     35  OH        29.0820    0.3570   10.3340 O.3    88  TYR88      -0.2866
     36  N         26.3070   -2.5280    2.7710 N.3    91  LEU91      -0.1245
     37  CA        27.7390   -2.5790    2.3880 C.3    91  LEU91       0.1561
     38  C         28.5460   -3.6350    3.1230 C.2    91  LEU91       0.2260
     39  O         28.1490   -4.1400    4.1980 O.2    91  LEU91      -0.2867
     40  CB        28.4390   -1.2490    2.8130 C.3    91  LEU91       0.0270
     41  CG        27.7900    0.0470    2.2510 C.3    91  LEU91       0.0019
     42  CD1       28.3020    1.2980    2.9460 C.3    91  LEU91       0.0001
     43  CD2       28.2720    0.1930    0.8150 C.3    91  LEU91       0.0001
     44  N         32.0910    4.7150    5.0180 N.3    99  ALA99      -0.1245
     45  CA        30.8690    5.4920    5.3660 C.3    99  ALA99       0.1562
     46  C         31.0490    6.1840    6.7370 C.2    99  ALA99       0.2260
     47  O         30.6600    7.3530    6.9740 O.2    99  ALA99      -0.2867
     48  CB        29.5490    4.6040    5.3680 C.3    99  ALA99       0.0290
     49  N         33.3390    9.3440    6.3950 N.3   102  GLN102     -0.1231
     50  CA        32.6460   10.4710    5.8430 C.3   102  GLN102      0.1698
     51  C         31.7360   11.1110    6.8770 C.2   102  GLN102      0.2592
     52  O         31.6600   12.3110    7.0130 O.2   102  GLN102     -0.2718
     53  CB        31.9340    9.9880    4.5640 C.3   102  GLN102      0.0381
     54  CG        31.3110   11.0540    3.6620 C.3   102  GLN102      0.0905
     55  CD        30.7020   10.4360    2.3960 C.2   102  GLN102      0.2608
     56  OE1       30.2960    9.2620    2.4010 O.2   102  GLN102     -0.2717
     57  NE2       30.5440   11.2520    1.3630 N.am  102  GLN102     -0.0878
     58  N         31.0340   10.2910    7.6520 N.am  103  VAL103     -0.1980
     59  CA        30.1620   10.8440    8.6510 C.3   103  VAL103      0.1595
     60  C         30.9460   11.5390    9.7610 C.2   103  VAL103      0.2287
     61  O         30.5400   12.5900   10.2660 O.2   103  VAL103     -0.2864
     62  CB        29.2410    9.7450    9.2550 C.3   103  VAL103      0.0276
     63  CG1       28.3570   10.3400   10.3890 C.3   103  VAL103      0.0022
     64  CG2       28.1720    9.3430    8.2620 C.3   103  VAL103      0.0022
     65  N         26.5030   14.3320    5.0530 N.3   111  VAL111     -0.1245
     66  CA        26.3110   13.1500    4.2610 C.3   111  VAL111      0.1561
     67  C         24.9370   12.8750    3.7280 C.2   111  VAL111      0.2260
     68  O         24.8560   12.1410    2.7640 O.2   111  VAL111     -0.2867
     69  CB        26.7480   11.9170    5.0220 C.3   111  VAL111      0.0252
     70  CG1       26.8370   10.7150    4.0950 C.3   111  VAL111      0.0019
     71  CG2       28.1380   12.2290    5.5250 C.3   111  VAL111      0.0019
     72  N         24.0510   13.5170   -0.2540 N.3   114  PHE114     -0.1241
     73  CA        24.8070   12.6730   -1.1240 C.3   114  PHE114      0.1605
     74  C         23.8190   11.6340   -1.5930 C.2   114  PHE114      0.2264
     75  O         24.1350   10.5020   -1.9120 O.2   114  PHE114     -0.2867
     76  CB        26.0580   12.2560   -0.3440 C.3   114  PHE114      0.0534
     77  CG        27.2880   13.1480   -0.4330 C.ar  114  PHE114     -0.0203
     78  CD1       27.4070   14.2870    0.3620 C.ar  114  PHE114     -0.0042
     79  CD2       28.3740   12.8120   -1.2370 C.ar  114  PHE114     -0.0042
     80  CE1       28.5450   15.0820    0.2890 C.ar  114  PHE114     -0.0003
     81  CE2       29.5270   13.5850   -1.3170 C.ar  114  PHE114     -0.0003
     82  CZ        29.6210   14.7220   -0.5160 C.ar  114  PHE114     -0.0000
     83  N         24.4700    7.9330   -2.5880 N.3   118  LEU118     -0.1245
     84  CA        23.9820    6.9160   -1.6930 C.3   118  LEU118      0.1561
     85  C         23.2280    5.8600   -2.4660 C.2   118  LEU118      0.2260
     86  O         23.3070    4.6490   -2.2570 O.2   118  LEU118     -0.2867
     87  CB        22.9630    7.5390   -0.7260 C.3   118  LEU118      0.0270
     88  CG        23.5940    8.4790    0.3230 C.3   118  LEU118      0.0019
     89  CD1       22.4640    9.0940    1.1450 C.3   118  LEU118      0.0001
     90  CD2       24.7460    7.8180    1.1330 C.3   118  LEU118      0.0001
     91  N         25.7210    3.6780   -4.3170 N.3   121  LEU121     -0.1245
     92  CA        26.4490    2.7620   -3.4490 C.3   121  LEU121      0.1561
     93  C         25.5050    1.5800   -3.1150 C.2   121  LEU121      0.2260
     94  O         25.9340    0.4330   -3.0260 O.2   121  LEU121     -0.2867
     95  CB        26.8050    3.5080   -2.1420 C.3   121  LEU121      0.0270
     96  CG        27.9710    4.5110   -2.3760 C.3   121  LEU121      0.0019
     97  CD1       28.2470    5.2790   -1.0940 C.3   121  LEU121      0.0001
     98  CD2       29.2720    3.7520   -2.6840 C.3   121  LEU121      0.0001
     99  N         30.6150   10.9970   -6.2640 N.3   133  LEU133     -0.1245
    100  CA        31.1450   11.5420   -5.0080 C.3   133  LEU133      0.1561
    101  C         32.1880   12.6630   -5.1840 C.2   133  LEU133      0.2260
    102  O         32.2960   13.5810   -4.3730 O.2   133  LEU133     -0.2867
    103  CB        31.8520   10.3950   -4.1480 C.3   133  LEU133      0.0270
    104  CG        30.9760    9.3300   -3.4150 C.3   133  LEU133      0.0019
    105  CD1       31.9030    8.1740   -2.9680 C.3   133  LEU133      0.0001
    106  CD2       30.0940    9.9420   -2.3480 C.3   133  LEU133      0.0001
    107  N         35.6310    3.3520   -1.1560 N.3   153  PHE153     -0.1241
    108  CA        34.3160    2.8970   -1.5850 C.3   153  PHE153      0.1605
    109  C         34.3270    2.2020   -2.9770 C.2   153  PHE153      0.2264
    110  O         33.5160    1.2920   -3.2880 O.2   153  PHE153     -0.2867
    111  CB        33.3880    4.0990   -1.8180 C.3   153  PHE153      0.0534
    112  CG        32.8060    4.7370   -0.5920 C.ar  153  PHE153     -0.0203
    113  CD1       33.0320    6.0910   -0.3140 C.ar  153  PHE153     -0.0042
    114  CD2       31.8930    4.0180    0.2130 C.ar  153  PHE153     -0.0042
    115  CE1       32.3870    6.6810    0.7910 C.ar  153  PHE153     -0.0003
    116  CE2       31.2320    4.6210    1.2900 C.ar  153  PHE153     -0.0003
    117  CZ        31.4980    5.9660    1.5980 C.ar  153  PHE153     -0.0000
@<TRIPOS>BOND
     1    99   100    1
     2   101   100    1
     3   101   102    2
     4   100   103    1
     5    91    92    1
     6   103   104    1
     7    92    93    1
     8    92    95    1
     9   104   105    1
    10   104   106    1
    11   110   109    2
    12    93    94    2
    13   109   108    1
    14    98    96    1
    15    83    84    1
    16    85    86    2
    17    85    84    1
    18    96    95    1
    19    96    97    1
    20    75    74    2
    21   111   108    1
    22   111   112    1
    23    84    87    1
    24    74    73    1
    25   108   107    1
    26    81    79   ar
    27    81    82   ar
    28    79    77   ar
    29    73    76    1
    30    73    72    1
    31    87    88    1
    32   112   113   ar
    33   112   114   ar
    34    82    80   ar
    35    77    76    1
    36    77    78   ar
    37   113   115   ar
    38   114   116   ar
    39    80    78   ar
    40    88    90    1
    41    88    89    1
    42   115   117   ar
    43    43    41    1
    44    22    21    1
    45   116   117   ar
    46    57    55   am
    47    23    21    1
    48    21    18    1
    49    41    40    1
    50    41    42    1
    51    37    36    1
    52    37    40    1
    53    37    38    1
    54    55    56    2
    55    55    54    1
    56    18    19    1
    57    18    17    1
    58    68    67    2
    59    20    19    2
    60    38    39    2
    61    19    24   am
    62    54    53    1
    63    67    66    1
    64    70    69    1
    65    66    69    1
    66    66    65    1
    67    53    50    1
    68    24    25    1
    69    44    45    1
    70    69    71    1
    71    45    48    1
    72    45    46    1
    73    16    14    1
    74    25    26    1
    75    25    28    1
    76    27    26    2
    77    12    11    2
    78    50    49    1
    79    50    51    1
    80     9    10    1
    81    10    11    1
    82    10    13    1
    83    46    47    2
    84    14    13    1
    85    14    15    1
    86    28    29    1
    87    51    52    2
    88    51    58   am
    89    30    29   ar
    90    30    32   ar
    91    58    59    1
    92    29    31   ar
    93    64    62    1
    94    32    34   ar
    95    59    62    1
    96    59    60    1
    97    31    33   ar
    98    62    63    1
    99    34    33   ar
   100    34    35    1
   101     7     5    1
   102     8     6    1
   103     6     5    1
   104    60    61    2
   105     4     3    2
   106     5     2    1
   107     2     3    1
   108     2     1    1
