@<TRIPOS>MOLECULE
tmp/1lgxA00.pdb
 117 108 0 0 0
SMALL
GASTEIGER

@<TRIPOS>ATOM
      1  N         24.5150    6.8810   12.3190 N.3    78  ILE78      -0.1245
      2  CA        24.1500    6.2420   11.0950 C.3    78  ILE78       0.1561
      3  C         22.9740    5.3270   11.2550 C.2    78  ILE78       0.2260
      4  O         22.0250    5.3690   10.4560 O.2    78  ILE78      -0.2867
      5  CB        25.3360    5.3860   10.5460 C.3    78  ILE78       0.0252
      6  CG1       26.2590    6.3790    9.8260 C.3    78  ILE78       0.0019
      7  CG2       24.9400    4.4140    9.4090 C.3    78  ILE78       0.0019
      8  CD1       27.6350    5.7950    9.4160 C.3    78  ILE78       0.0001
      9  N         20.1360    6.6720    5.9680 N.3    84  LEU84      -0.1245
     10  CA        21.4420    6.1010    6.0490 C.3    84  LEU84       0.1561
     11  C         21.4930    4.6130    6.2880 C.2    84  LEU84       0.2260
     12  O         22.1720    3.8940    5.6380 O.2    84  LEU84      -0.2867
     13  CB        22.1930    6.8340    7.1790 C.3    84  LEU84       0.0270
     14  CG        22.4120    8.2910    6.8560 C.3    84  LEU84       0.0019
     15  CD1       23.5370    8.8920    7.6830 C.3    84  LEU84       0.0001
     16  CD2       22.8550    8.4850    5.4100 C.3    84  LEU84       0.0001
     17  N         21.4620    2.0070    3.6310 N.3    87  VAL87      -0.1231
     18  CA        22.5690    1.9450    2.7400 C.3    87  VAL87       0.1692
     19  C         23.7420    1.2640    3.4520 C.2    87  VAL87       0.2592
     20  O         24.4910    0.4120    2.9660 O.2    87  VAL87      -0.2718
     21  CB        22.9440    3.3690    2.2390 C.3    87  VAL87       0.0266
     22  CG1       24.0680    3.1880    1.1990 C.3    87  VAL87       0.0020
     23  CG2       21.7310    4.0920    1.6620 C.3    87  VAL87       0.0020
     24  N         23.9890    1.7780    4.6230 N.am   88  TYR88      -0.1976
     25  CA        25.0820    1.2530    5.4310 C.3    88  TYR88       0.1639
     26  C         24.9960   -0.2390    5.6320 C.2    88  TYR88       0.2290
     27  O         25.9670   -0.9940    5.5310 O.2    88  TYR88      -0.2864
     28  CB        24.8570    1.8830    6.7950 C.3    88  TYR88       0.0560
     29  CG        25.9940    1.5240    7.7380 C.ar   88  TYR88      -0.0198
     30  CD1       27.2450    2.1370    7.6260 C.ar   88  TYR88      -0.0009
     31  CD2       25.8110    0.4850    8.6410 C.ar   88  TYR88      -0.0009
     32  CE1       28.3040    1.7340    8.4460 C.ar   88  TYR88       0.0417
     33  CE2       26.8320    0.1390    9.5190 C.ar   88  TYR88       0.0417
     34  CZ        28.0600    0.7830    9.4370 C.ar   88  TYR88       0.1957
     35  OH        29.0570    0.3840   10.2600 O.3    88  TYR88      -0.2866
     36  N         26.2430   -2.5320    2.7950 N.3    91  LEU91      -0.1245
     37  CA        27.6730   -2.5680    2.4280 C.3    91  LEU91       0.1561
     38  C         28.4830   -3.6230    3.1480 C.2    91  LEU91       0.2260
     39  O         28.0780   -4.0600    4.2310 O.2    91  LEU91      -0.2867
     40  CB        28.3820   -1.2520    2.8200 C.3    91  LEU91       0.0270
     41  CG        27.7600    0.0210    2.1890 C.3    91  LEU91       0.0019
     42  CD1       28.1470    1.2450    3.0130 C.3    91  LEU91       0.0001
     43  CD2       28.2350    0.1600    0.7550 C.3    91  LEU91       0.0001
     44  N         32.0790    4.7930    5.0430 N.3    99  ALA99      -0.1245
     45  CA        30.8430    5.5590    5.3900 C.3    99  ALA99       0.1562
     46  C         31.0470    6.2480    6.7440 C.2    99  ALA99       0.2260
     47  O         30.6910    7.4160    6.9200 O.2    99  ALA99      -0.2867
     48  CB        29.5460    4.7040    5.3730 C.3    99  ALA99       0.0290
     49  N         33.3760    9.3760    6.4090 N.3   102  GLN102     -0.1231
     50  CA        32.7060   10.5100    5.8330 C.3   102  GLN102      0.1698
     51  C         31.8070   11.1410    6.8700 C.2   102  GLN102      0.2592
     52  O         31.7630   12.3440    7.0540 O.2   102  GLN102     -0.2718
     53  CB        31.8990   10.0180    4.6090 C.3   102  GLN102      0.0381
     54  CG        31.4010   11.1170    3.6630 C.3   102  GLN102      0.0905
     55  CD        30.7240   10.5950    2.3910 C.2   102  GLN102      0.2608
     56  OE1       30.3160    9.4190    2.2930 O.2   102  GLN102     -0.2717
     57  NE2       30.5170   11.5220    1.4600 N.am  102  GLN102     -0.0878
     58  N         31.1110   10.3130    7.6150 N.am  103  VAL103     -0.1980
     59  CA        30.2610   10.8910    8.6230 C.3   103  VAL103      0.1595
     60  C         31.0220   11.5660    9.7460 C.2   103  VAL103      0.2287
     61  O         30.5430   12.5730   10.2780 O.2   103  VAL103     -0.2864
     62  CB        29.2800    9.8760    9.2370 C.3   103  VAL103      0.0276
     63  CG1       28.3180   10.5550   10.2340 C.3   103  VAL103      0.0022
     64  CG2       28.2040    9.5410    8.2420 C.3   103  VAL103      0.0022
     65  N         26.4600   14.4730    5.0150 N.3   111  VAL111     -0.1245
     66  CA        26.2930   13.2740    4.2470 C.3   111  VAL111      0.1561
     67  C         24.9130   12.9550    3.7350 C.2   111  VAL111      0.2260
     68  O         24.8080   12.1030    2.8690 O.2   111  VAL111     -0.2867
     69  CB        26.7320   12.0640    5.0400 C.3   111  VAL111      0.0252
     70  CG1       27.0590   10.9510    4.0570 C.3   111  VAL111      0.0019
     71  CG2       28.0020   12.4490    5.7910 C.3   111  VAL111      0.0019
     72  N         24.1480   13.6280   -0.1600 N.3   114  PHE114     -0.1241
     73  CA        24.8170   12.7060   -1.0430 C.3   114  PHE114      0.1605
     74  C         23.8000   11.6860   -1.5360 C.2   114  PHE114      0.2264
     75  O         24.1210   10.5650   -1.9290 O.2   114  PHE114     -0.2867
     76  CB        26.0670   12.2690   -0.2820 C.3   114  PHE114      0.0534
     77  CG        27.2980   13.1470   -0.3850 C.ar  114  PHE114     -0.0203
     78  CD1       27.4320   14.2810    0.4230 C.ar  114  PHE114     -0.0042
     79  CD2       28.3680   12.7870   -1.2040 C.ar  114  PHE114     -0.0042
     80  CE1       28.5740   15.0770    0.3640 C.ar  114  PHE114     -0.0003
     81  CE2       29.5170   13.5700   -1.2900 C.ar  114  PHE114     -0.0003
     82  CZ        29.6270   14.6950   -0.4690 C.ar  114  PHE114     -0.0000
     83  N         24.3570    7.9710   -2.5910 N.3   118  LEU118     -0.1245
     84  CA        23.9280    6.9700   -1.6660 C.3   118  LEU118      0.1561
     85  C         23.2050    5.8870   -2.4180 C.2   118  LEU118      0.2260
     86  O         23.2660    4.6960   -2.1680 O.2   118  LEU118     -0.2867
     87  CB        22.8970    7.5410   -0.6890 C.3   118  LEU118      0.0270
     88  CG        23.5280    8.4120    0.3840 C.3   118  LEU118      0.0019
     89  CD1       22.3940    9.0570    1.1630 C.3   118  LEU118      0.0001
     90  CD2       24.6310    7.6600    1.1830 C.3   118  LEU118      0.0001
     91  N         25.6550    3.7000   -4.3470 N.3   121  LEU121     -0.1245
     92  CA        26.4050    2.7620   -3.5120 C.3   121  LEU121      0.1561
     93  C         25.4670    1.6250   -3.1440 C.2   121  LEU121      0.2260
     94  O         25.8320    0.4570   -3.1220 O.2   121  LEU121     -0.2867
     95  CB        26.8810    3.4040   -2.2030 C.3   121  LEU121      0.0270
     96  CG        27.9620    4.4450   -2.4590 C.3   121  LEU121      0.0019
     97  CD1       28.2160    5.1700   -1.1510 C.3   121  LEU121      0.0001
     98  CD2       29.3110    3.7690   -2.7850 C.3   121  LEU121      0.0001
     99  N         30.5960   11.0020   -6.2540 N.3   133  LEU133     -0.1245
    100  CA        31.0870   11.5590   -4.9920 C.3   133  LEU133      0.1561
    101  C         32.1450   12.6900   -5.1890 C.2   133  LEU133      0.2260
    102  O         32.3020   13.6510   -4.4220 O.2   133  LEU133     -0.2867
    103  CB        31.7660   10.4040   -4.1230 C.3   133  LEU133      0.0270
    104  CG        30.8680    9.3640   -3.3810 C.3   133  LEU133      0.0019
    105  CD1       31.7750    8.1160   -3.1240 C.3   133  LEU133      0.0001
    106  CD2       30.1880   10.0010   -2.1740 C.3   133  LEU133      0.0001
    107  N         35.5860    3.3950   -1.1230 N.3   153  PHE153     -0.1241
    108  CA        34.2600    2.9340   -1.5450 C.3   153  PHE153      0.1605
    109  C         34.2620    2.2330   -2.9200 C.2   153  PHE153      0.2264
    110  O         33.4830    1.3000   -3.1940 O.2   153  PHE153     -0.2867
    111  CB        33.3610    4.1550   -1.7880 C.3   153  PHE153      0.0534
    112  CG        32.7120    4.7500   -0.5680 C.ar  153  PHE153     -0.0203
    113  CD1       32.9620    6.0880   -0.2500 C.ar  153  PHE153     -0.0042
    114  CD2       31.8330    4.0170    0.2570 C.ar  153  PHE153     -0.0042
    115  CE1       32.3320    6.6900    0.8510 C.ar  153  PHE153     -0.0003
    116  CE2       31.1760    4.6260    1.3400 C.ar  153  PHE153     -0.0003
    117  CZ        31.4440    5.9670    1.6590 C.ar  153  PHE153     -0.0000
@<TRIPOS>BOND
     1    99   100    1
     2   101   100    1
     3   101   102    2
     4   100   103    1
     5    91    92    1
     6   103   104    1
     7    92    93    1
     8    92    95    1
     9   104   105    1
    10   104   106    1
    11   110   109    2
    12    93    94    2
    13   109   108    1
    14    98    96    1
    15    83    84    1
    16    96    95    1
    17    96    97    1
    18    85    86    2
    19    85    84    1
    20    75    74    2
    21   111   108    1
    22   111   112    1
    23    84    87    1
    24   108   107    1
    25    74    73    1
    26    81    79   ar
    27    81    82   ar
    28    79    77   ar
    29    73    76    1
    30    73    72    1
    31    87    88    1
    32   112   113   ar
    33   112   114   ar
    34    82    80   ar
    35    77    76    1
    36    77    78   ar
    37   113   115   ar
    38   114   116   ar
    39    80    78   ar
    40    88    89    1
    41    88    90    1
    42    43    41    1
    43   115   117   ar
    44    22    21    1
    45   116   117   ar
    46    57    55   am
    47    23    21    1
    48    41    40    1
    49    41    42    1
    50    21    18    1
    51    56    55    2
    52    55    54    1
    53    37    36    1
    54    37    40    1
    55    37    38    1
    56    18    19    1
    57    18    17    1
    58    68    67    2
    59    20    19    2
    60    38    39    2
    61    19    24   am
    62    54    53    1
    63    67    66    1
    64    70    69    1
    65    66    65    1
    66    66    69    1
    67    53    50    1
    68    24    25    1
    69    69    71    1
    70    44    45    1
    71    48    45    1
    72    45    46    1
    73    16    14    1
    74    25    26    1
    75    25    28    1
    76    27    26    2
    77    12    11    2
    78    50    49    1
    79    50    51    1
    80     9    10    1
    81    10    11    1
    82    10    13    1
    83    46    47    2
    84    28    29    1
    85    14    13    1
    86    14    15    1
    87    51    52    2
    88    51    58   am
    89    58    59    1
    90    30    29   ar
    91    30    32   ar
    92    29    31   ar
    93    64    62    1
    94    32    34   ar
    95    59    62    1
    96    59    60    1
    97    31    33   ar
    98    62    63    1
    99     7     5    1
   100     8     6    1
   101    34    33   ar
   102    34    35    1
   103    60    61    2
   104     6     5    1
   105     4     3    2
   106     5     2    1
   107     2     3    1
   108     2     1    1
