@<TRIPOS>MOLECULE
tmp/1lh1A00.pdb
 212 203 0 0 0
SMALL
GASTEIGER

@<TRIPOS>ATOM
      1  N         26.4690   24.6220   38.5380 N.3    33  VAL33      -0.1245
      2  CA        25.1410   25.0880   38.7610 C.3    33  VAL33       0.1561
      3  C         24.4590   24.4080   39.9980 C.2    33  VAL33       0.2260
      4  O         23.9540   25.1170   40.8140 O.2    33  VAL33      -0.2867
      5  CB        24.1210   24.8220   37.5490 C.3    33  VAL33       0.0252
      6  CG1       22.6550   25.0160   37.9120 C.3    33  VAL33       0.0019
      7  CG2       24.6070   25.6540   36.2900 C.3    33  VAL33       0.0019
      8  N         17.7040   23.0780   41.3820 N.3    40  ALA40      -0.1245
      9  CA        17.5780   23.4900   39.9710 C.3    40  ALA40       0.1562
     10  C         17.3960   22.2160   39.1030 C.2    40  ALA40       0.2260
     11  O         17.0300   22.2350   37.9090 O.2    40  ALA40      -0.2867
     12  CB        18.8870   24.4630   39.5120 C.3    40  ALA40       0.0290
     13  N         14.2240   21.0940   36.9170 N.3    43  LEU43      -0.1231
     14  CA        13.8360   21.8780   35.7700 C.3    43  LEU43       0.1693
     15  C         14.1750   21.2890   34.4200 C.2    43  LEU43       0.2592
     16  O         13.6090   21.6260   33.3860 O.2    43  LEU43      -0.2718
     17  CB        14.5390   23.3600   35.8370 C.3    43  LEU43       0.0284
     18  CG        14.2490   24.0890   37.1320 C.3    43  LEU43       0.0019
     19  CD1       15.1070   25.4980   37.2050 C.3    43  LEU43       0.0001
     20  CD2       12.7500   24.2140   37.1660 C.3    43  LEU43       0.0001
     21  N         15.1410   20.5130   34.4130 N.am   44  PHE44      -0.1962
     22  CA        15.7400   20.1290   33.1500 C.3    44  PHE44       0.1771
     23  C         15.2250   18.6570   32.8100 C.2    44  PHE44       0.2620
     24  O         15.4100   17.7730   33.6410 O.2    44  PHE44      -0.2715
     25  CB        17.2970   20.2740   33.2710 C.3    44  PHE44       0.0574
     26  CG        17.9450   21.7890   33.4230 C.ar   44  PHE44      -0.0200
     27  CD1       18.1970   22.3420   34.6790 C.ar   44  PHE44      -0.0042
     28  CD2       18.2890   22.5880   32.3040 C.ar   44  PHE44      -0.0042
     29  CE1       18.7890   23.7060   34.8250 C.ar   44  PHE44      -0.0003
     30  CE2       18.8870   23.9520   32.4420 C.ar   44  PHE44      -0.0003
     31  CZ        19.1410   24.5120   33.7070 C.ar   44  PHE44      -0.0000
     32  N         14.5620   18.4390   31.6910 N.am   45  SER45      -0.1936
     33  CA        13.8530   17.1110   31.2010 C.3    45  SER45       0.2055
     34  C         14.7550   16.0160   31.1700 C.2    45  SER45       0.2643
     35  O         14.3290   14.8660   31.6220 O.2    45  SER45      -0.2714
     36  CB        13.2810   17.3250   29.7950 C.3    45  SER45       0.2130
     37  OG        14.2950   17.7760   28.7880 O.3    45  SER45      -0.2179
     38  N         16.0190   16.3820   30.7690 N.am   46  PHE46      -0.1973
     39  CA        17.0110   15.4430   30.7410 C.3    46  PHE46       0.1639
     40  C         17.6490   15.2680   32.1020 C.2    46  PHE46       0.2290
     41  O         18.4570   14.4300   32.2240 O.2    46  PHE46      -0.2864
     42  CB        18.1290   15.8540   29.6610 C.3    46  PHE46       0.0560
     43  CG        18.7430   17.3720   29.7140 C.ar   46  PHE46      -0.0200
     44  CD1       18.2890   18.2930   28.8560 C.ar   46  PHE46      -0.0042
     45  CD2       19.7090   17.8180   30.6570 C.ar   46  PHE46      -0.0042
     46  CE1       18.8010   19.6590   28.9410 C.ar   46  PHE46      -0.0003
     47  CE2       20.2550   19.1980   30.7360 C.ar   46  PHE46      -0.0003
     48  CZ        19.7960   20.1210   29.8800 C.ar   46  PHE46      -0.0000
     49  N         21.4750   15.6650   24.5840 N.3    59  GLU59      -0.1245
     50  CA        20.5930   16.6950   24.7580 C.3    59  GLU59       0.1567
     51  C         21.2800   17.7640   25.7030 C.2    59  GLU59       0.2260
     52  O         21.2560   18.9890   25.4710 O.2    59  GLU59      -0.2867
     53  CB        19.2390   16.1240   25.4020 C.3    59  GLU59       0.0388
     54  CG        18.0370   15.7860   24.4550 C.3    59  GLU59       0.1160
     55  CD        16.7630   15.8130   25.3130 C.2    59  GLU59       0.3649
     56  OE1       16.4330   16.9400   25.6530 O.co2  59  GLU59      -0.2457
     57  OE2       16.3240   14.7950   26.0180 O.co2  59  GLU59      -0.2457
     58  N         24.3400   19.7970   23.8270 N.3    62  ALA62      -0.1231
     59  CA        23.9690   20.7620   22.8430 C.3    62  ALA62       0.1694
     60  C         23.3340   21.9060   23.4690 C.2    62  ALA62       0.2592
     61  O         23.6970   23.0940   23.0910 O.2    62  ALA62      -0.2718
     62  CB        22.9690   20.0430   21.8360 C.3    62  ALA62       0.0304
     63  N         22.5720   21.5760   24.5050 N.am   63  HIS63      -0.1976
     64  CA        22.0320   22.6310   25.2490 C.3    63  HIS63       0.1656
     65  C         23.1610   23.6840   25.8610 C.2    63  HIS63       0.2291
     66  O         23.2290   24.9180   25.5600 O.2    63  HIS63      -0.2864
     67  CB        21.1080   21.9460   26.3680 C.3    63  HIS63       0.0771
     68  CG        20.6800   23.0240   27.3290 C.ar   63  HIS63       0.0820
     69  ND1       19.6190   23.6580   27.0650 N.ar   63  HIS63      -0.2267
     70  CD2       21.2200   23.5480   28.4570 C.ar   63  HIS63       0.1154
     71  CE1       19.4820   24.5900   28.0430 C.ar   63  HIS63       0.1986
     72  NE2       20.4930   24.5210   28.9270 N.ar   63  HIS63      -0.2212
     73  N         25.3410   26.0500   23.4290 N.3    66  LYS66      -0.1182
     74  CA        24.6790   27.1450   22.8510 C.3    66  LYS66       0.1909
     75  C         24.7020   28.2910   23.8620 C.2    66  LYS66       0.2634
     76  O         24.7980   29.4860   23.4300 O.2    66  LYS66      -0.2714
     77  CB        23.1670   26.6930   22.5590 C.2    66  LYS66      -0.0028
     78  CG        22.9110   25.5490   21.5290 C.2    66  LYS66      -0.0272
     79  CD        21.4010   24.8640   21.5380 C.3    66  LYS66       0.0462
     80  CE        20.4460   25.8170   21.0170 C.3    66  LYS66       0.1140
     81  NZ        19.0920   25.0430   20.7880 N.3    66  LYS66      -0.1310
     82  N         24.6330   27.9300   25.1440 N.am   67  VAL67      -0.1977
     83  CA        24.7400   28.9770   26.2200 C.3    67  VAL67       0.1596
     84  C         26.1020   29.9080   26.2420 C.2    67  VAL67       0.2287
     85  O         26.1900   31.1730   26.1680 O.2    67  VAL67      -0.2864
     86  CB        24.4800   28.3140   27.6200 C.3    67  VAL67       0.0276
     87  CG1       24.7240   29.4120   28.7330 C.3    67  VAL67       0.0022
     88  CG2       23.0110   27.4920   27.6780 C.3    67  VAL67       0.0022
     89  N         26.6900   32.1620   23.0730 N.3    70  LEU70      -0.1231
     90  CA        25.9700   33.3440   23.0830 C.3    70  LEU70       0.1693
     91  C         26.6530   34.4890   23.9650 C.2    70  LEU70       0.2588
     92  O         26.6860   35.6900   23.5630 O.2    70  LEU70      -0.2718
     93  CB        24.4930   33.0280   23.5630 C.3    70  LEU70       0.0284
     94  CG        23.5570   32.1510   22.5840 C.3    70  LEU70       0.0019
     95  CD1       22.1590   31.7470   23.2560 C.3    70  LEU70       0.0001
     96  CD2       23.3710   32.9630   21.3260 C.3    70  LEU70       0.0001
     97  N         27.2570   34.1050   25.0480 N.am   71  VAL71      -0.2033
     98  CA        28.0860   35.1530   25.8620 C.3    71  VAL71       0.1282
     99  C         29.3610   35.8250   25.1280 C.3    71  VAL71       0.2035
    100  O         29.7110   37.0920   25.1200 O.3    71  VAL71      -0.2185
    101  CB        28.3630   34.6900   27.3170 C.3    71  VAL71       0.0226
    102  CG1       29.2180   35.8390   28.1690 C.3    71  VAL71       0.0018
    103  CG2       27.0060   34.2490   28.0490 C.3    71  VAL71       0.0018
    104  N         14.1390   32.5120   23.2090 N.3    93  LEU93      -0.1245
    105  CA        14.7660   32.0570   24.4310 C.3    93  LEU93       0.1561
    106  C         14.0850   32.4940   25.6680 C.2    93  LEU93       0.2260
    107  O         13.9480   31.7280   26.6590 O.2    93  LEU93      -0.2867
    108  CB        16.2620   32.6730   24.6100 C.3    93  LEU93       0.0270
    109  CG        17.1680   31.7610   23.9900 C.3    93  LEU93       0.0019
    110  CD1       18.6430   32.3070   24.3590 C.3    93  LEU93       0.0001
    111  CD2       16.7300   30.3110   24.4950 C.3    93  LEU93       0.0001
    112  N         10.8710   29.8940   26.1550 N.3    96  VAL96      -0.1231
    113  CA        11.1140   28.5750   26.6410 C.3    96  VAL96       0.1692
    114  C         11.4860   28.6090   28.1190 C.2    96  VAL96       0.2592
    115  O         11.0270   27.6270   28.8650 O.2    96  VAL96      -0.2718
    116  CB        12.0730   27.8860   25.7490 C.3    96  VAL96       0.0266
    117  CG1       13.1610   28.8560   25.0850 C.3    96  VAL96       0.0020
    118  CG2       12.7370   26.8160   26.5240 C.3    96  VAL96       0.0020
    119  N         12.2180   29.7400   28.5620 N.am   97  HIS97      -0.1976
    120  CA        12.6060   29.7710   29.9790 C.3    97  HIS97       0.1656
    121  C         11.4060   29.8900   30.8710 C.2    97  HIS97       0.2291
    122  O         11.2700   29.2000   31.9160 O.2    97  HIS97      -0.2864
    123  CB        13.7580   30.9680   30.2920 C.3    97  HIS97       0.0771
    124  CG        15.1210   30.6500   29.7440 C.ar   97  HIS97       0.0820
    125  ND1       15.6330   31.0940   28.5130 N.ar   97  HIS97      -0.2267
    126  CD2       15.9300   29.8370   30.2260 C.ar   97  HIS97       0.1154
    127  CE1       16.7760   30.5510   28.2390 C.ar   97  HIS97       0.1986
    128  NE2       16.9870   29.7660   29.3150 N.ar   97  HIS97      -0.2212
    129  N          9.4610   26.4780   31.2820 N.3   100  LYS100     -0.1245
    130  CA        10.0820   25.5190   32.0940 C.3   100  LYS100      0.1561
    131  C         10.1370   25.9120   33.5660 C.2   100  LYS100      0.2260
    132  O         10.6250   25.1940   34.3810 O.2   100  LYS100     -0.2867
    133  CB        11.5310   25.4630   31.5840 C.3   100  LYS100      0.0271
    134  CG        11.5420   24.8740   30.1640 C.3   100  LYS100      0.0035
    135  CD        10.9160   23.3730   30.1520 C.3   100  LYS100      0.0206
    136  CE        10.9650   22.6780   28.7780 C.3   100  LYS100      0.1093
    137  NZ        10.4250   21.2280   28.8840 N.3   100  LYS100     -0.1314
    138  N         11.7280   28.8590   34.9490 N.3   102  VAL102     -0.1301
    139  CA        13.0340   29.6690   35.3060 C.3   102  VAL102      0.1246
    140  C         12.7990   31.0560   35.7470 C.3   102  VAL102      0.2009
    141  O         11.9210   31.5840   35.1460 O.3   102  VAL102     -0.2188
    142  CB        13.9430   29.7580   34.0560 C.3   102  VAL102      0.0202
    143  CG1       15.2950   30.7380   34.2090 C.3   102  VAL102      0.0016
    144  CG2       14.1830   28.3300   33.6460 C.3   102  VAL102      0.0016
    145  N         17.6410   33.1040   39.2870 N.3   106  HIS106     -0.1226
    146  CA        18.4070   32.0140   38.8450 C.3   106  HIS106      0.1752
    147  C         19.7150   32.5790   38.1310 C.2   106  HIS106      0.2596
    148  O         20.6540   31.8750   38.0380 O.2   106  HIS106     -0.2718
    149  CB        17.6050   30.9730   37.8350 C.3   106  HIS106      0.0759
    150  CG        16.5010   29.9390   38.5060 C.ar  106  HIS106      0.0818
    151  ND1       15.1170   29.9710   38.2890 N.ar  106  HIS106     -0.2268
    152  CD2       16.6210   28.9020   39.3330 C.ar  106  HIS106      0.1154
    153  CE1       14.3600   28.8850   39.0190 C.ar  106  HIS106      0.1986
    154  NE2       15.3160   28.2090   39.6560 N.ar  106  HIS106     -0.2212
    155  N         19.7100   33.7500   37.5350 N.am  107  PHE107     -0.1976
    156  CA        20.8810   34.3410   36.7210 C.3   107  PHE107      0.1639
    157  C         22.2580   34.5240   37.4110 C.2   107  PHE107      0.2290
    158  O         23.2470   34.2820   36.7380 O.2   107  PHE107     -0.2864
    159  CB        20.6720   35.6080   35.8980 C.3   107  PHE107      0.0560
    160  CG        19.6800   35.2650   34.7340 C.ar  107  PHE107     -0.0200
    161  CD1       18.2830   35.0140   34.9480 C.ar  107  PHE107     -0.0042
    162  CD2       20.2060   35.1530   33.4740 C.ar  107  PHE107     -0.0042
    163  CE1       17.3920   34.6450   33.8710 C.ar  107  PHE107     -0.0003
    164  CE2       19.3300   34.7720   32.4060 C.ar  107  PHE107     -0.0003
    165  CZ        17.9250   34.5180   32.6050 C.ar  107  PHE107     -0.0000
    166  N         23.2230   32.5890   39.5470 N.3   109  VAL109     -0.1231
    167  CA        23.6200   31.2560   39.7130 C.3   109  VAL109      0.1692
    168  C         24.3810   30.8830   38.4950 C.2   109  VAL109      0.2591
    169  O         25.4840   30.4310   38.6070 O.2   109  VAL109     -0.2718
    170  CB        22.3690   30.1530   39.8630 C.3   109  VAL109      0.0266
    171  CG1       22.7690   28.7170   39.7600 C.3   109  VAL109      0.0020
    172  CG2       21.6630   30.3410   41.1860 C.3   109  VAL109      0.0020
    173  N         23.7670   31.0380   37.3520 N.am  110  VAL110     -0.1980
    174  CA        24.4470   30.7100   36.1140 C.3   110  VAL110      0.1595
    175  C         25.7640   31.6950   35.8600 C.2   110  VAL110      0.2287
    176  O         26.7940   31.3010   35.4030 O.2   110  VAL110     -0.2864
    177  CB        23.4420   30.6120   34.9140 C.3   110  VAL110      0.0276
    178  CG1       24.1390   30.4720   33.5480 C.3   110  VAL110      0.0022
    179  CG2       22.2900   29.4080   35.0910 C.3   110  VAL110      0.0022
    180  N         28.7320   39.0530   30.0750 N.3   138  TYR138     -0.1298
    181  CA        27.5550   38.2310   30.7060 C.3   138  TYR138      0.1290
    182  C         26.5820   39.1500   31.2170 C.3   138  TYR138      0.2013
    183  O         25.3620   38.8930   30.9000 O.3   138  TYR138     -0.2188
    184  CB        27.9570   37.4590   31.9380 C.3   138  TYR138      0.0480
    185  CG        26.6940   36.4930   32.4480 C.ar  138  TYR138     -0.0204
    186  CD1       25.8640   36.9400   33.4070 C.ar  138  TYR138     -0.0009
    187  CD2       26.3730   35.1960   31.9420 C.ar  138  TYR138     -0.0009
    188  CE1       24.7380   36.0780   33.8620 C.ar  138  TYR138      0.0417
    189  CE2       25.2380   34.3180   32.4180 C.ar  138  TYR138      0.0417
    190  CZ        24.4530   34.7590   33.3940 C.ar  138  TYR138      0.1957
    191  OH        23.3460   33.8620   33.9480 O.3   138  TYR138     -0.2866
    192  N         24.7310   40.6510   28.2590 N.3   141  LEU141     -0.1231
    193  CA        23.7630   39.6000   27.6250 C.3   141  LEU141      0.1693
    194  C         22.5560   39.1720   28.5700 C.2   141  LEU141      0.2588
    195  O         21.3600   38.9650   28.1320 O.2   141  LEU141     -0.2718
    196  CB        24.4770   38.3710   27.2430 C.3   141  LEU141      0.0284
    197  CG        23.5350   37.2230   26.4700 C.3   141  LEU141      0.0019
    198  CD1       22.9700   37.7620   25.1680 C.3   141  LEU141      0.0001
    199  CD2       24.3390   36.1100   26.0640 C.3   141  LEU141      0.0001
    200  N         22.8120   39.1280   29.8680 N.am  142  ALA142     -0.2033
    201  CA        21.7140   38.6550   30.8150 C.3   142  ALA142      0.1283
    202  C         20.7430   39.6990   30.9090 C.3   142  ALA142      0.2036
    203  O         19.4980   39.3290   31.0400 O.3   142  ALA142     -0.2185
    204  CB        22.2850   38.4570   32.2290 C.3   142  ALA142      0.0262
    205  N         18.3640   38.8880   27.8910 N.3   145  ILE145     -0.1301
    206  CA        17.3580   37.6580   28.0610 C.3   145  ILE145      0.1246
    207  C         16.3130   37.8260   29.1500 C.3   145  ILE145      0.2009
    208  O         15.0870   37.3980   28.9430 O.3   145  ILE145     -0.2188
    209  CB        18.1190   36.4580   28.3900 C.3   145  ILE145      0.0202
    210  CG1       18.8850   36.1110   27.1090 C.3   145  ILE145      0.0015
    211  CG2       17.1180   35.2170   28.8800 C.3   145  ILE145      0.0016
    212  CD1       19.7960   35.0410   27.4270 C.3   145  ILE145      0.0000
@<TRIPOS>BOND
     1    81    80    1
     2    80    79    1
     3    96    94    1
     4    78    79    1
     5    78    77    2
     6    62    59    1
     7    77    74    1
     8    94    95    1
     9    94    93    1
    10    59    60    1
    11    59    58    1
    12    74    73    1
    13    74    75    1
    14    89    90    1
    15    90    93    1
    16    90    91    1
    17    61    60    2
    18   104   105    1
    19    76    75    2
    20    60    63   am
    21    92    91    2
    22    75    82   am
    23    91    97   am
    24   109   110    1
    25   109   111    1
    26   109   108    1
    27   105   108    1
    28   105   106    1
    29    54    55    1
    30    54    53    1
    31    63    64    1
    32    49    50    1
    33    50    53    1
    34    50    51    1
    35    97    98    1
    36   117   116    1
    37   100    99    1
    38    99    98    1
    39    82    83    1
    40   198   197    1
    41    64    65    1
    42    64    67    1
    43    55    56   ar
    44    55    57   ar
    45    52    51    2
    46    66    65    2
    47   106   107    2
    48   116   118    1
    49   116   113    1
    50    98   101    1
    51   199   197    1
    52   112   113    1
    53    85    84    2
    54    83    84    1
    55    83    86    1
    56    67    68    1
    57   197   196    1
    58   113   114    1
    59    69    68   ar
    60    69    71   ar
    61   210   212    1
    62   210   209    1
    63   196   193    1
    64   101   103    1
    65   101   102    1
    66    68    70   ar
    67    86    88    1
    68    86    87    1
    69   193   192    1
    70   193   194    1
    71   205   206    1
    72    71    72   ar
    73   206   209    1
    74   206   207    1
    75   114   119   am
    76   114   115    2
    77   195   194    2
    78   127   125   ar
    79   127   128   ar
    80   209   211    1
    81    70    72   ar
    82   125   124   ar
    83   119   120    1
    84   194   200   am
    85   136   137    1
    86   136   135    1
    87    37    36    1
    88    44    46   ar
    89    44    43   ar
    90    46    48   ar
    91   208   207    1
    92   128   126   ar
    93    42    43    1
    94    42    39    1
    95    43    45   ar
    96   124   126   ar
    97   124   123    1
    98    36    33    1
    99   200   201    1
   100    48    47   ar
   101   120   123    1
   102   120   121    1
   103   180   181    1
   104   135   134    1
   105   134   133    1
   106    45    47   ar
   107   181   182    1
   108   181   184    1
   109    39    38    1
   110    39    40    1
   111    38    34   am
   112   201   202    1
   113   201   204    1
   114   121   122    2
   115   183   182    1
   116   202   203    1
   117    34    33    1
   118    34    35    2
   119    33    32    1
   120   129   130    1
   121   133   130    1
   122    32    23   am
   123   184   185    1
   124   187   189   ar
   125   187   185   ar
   126   130   131    1
   127    40    41    2
   128    28    30   ar
   129    28    26   ar
   130   164   165   ar
   131   164   162   ar
   132   189   190   ar
   133    30    31   ar
   134   185   186   ar
   135   165   163   ar
   136    23    22    1
   137    23    24    2
   138    22    25    1
   139    22    21    1
   140    25    26    1
   141    16    15    2
   142   190   188   ar
   143   190   191    1
   144   186   188   ar
   145    26    27   ar
   146   162   160   ar
   147   178   177    1
   148   131   132    2
   149   144   142    1
   150    31    29   ar
   151   163   161   ar
   152   142   143    1
   153   142   139    1
   154    21    15   am
   155    15    14    1
   156    27    29   ar
   157   160   161   ar
   158   160   159    1
   159   177   179    1
   160   177   174    1
   161   138   139    1
   162   141   140    1
   163   139   140    1
   164   176   175    2
   165    14    17    1
   166    14    13    1
   167    17    18    1
   168   175   174    1
   169   159   156    1
   170   174   173    1
   171     7     5    1
   172   156   157    1
   173   156   155    1
   174   158   157    2
   175    18    20    1
   176    18    19    1
   177   173   168   am
   178   155   147   am
   179     5     6    1
   180     5     2    1
   181   149   150    1
   182   149   146    1
   183    11    10    2
   184   148   147    2
   185   147   146    1
   186   151   150   ar
   187   151   153   ar
   188   168   169    2
   189   168   167    1
   190   150   152   ar
   191     1     2    1
   192     2     3    1
   193   146   145    1
   194   153   154   ar
   195    10     9    1
   196   152   154   ar
   197    12     9    1
   198   166   167    1
   199   167   170    1
   200   171   170    1
   201   170   172    1
   202     9     8    1
   203     3     4    2
