@<TRIPOS>MOLECULE
tmp/1lh6A01.pdb
 90 88 0 0 0
SMALL
GASTEIGER

@<TRIPOS>ATOM
      1  N         29.6570   23.0190   33.9930 N.3    29  PHE29      -0.1227
      2  CA        28.7820   24.0550   34.0670 C.3    29  PHE29       0.1736
      3  C         27.4610   23.6060   34.8320 C.2    29  PHE29       0.2595
      4  O         27.2070   24.2770   35.8250 O.2    29  PHE29      -0.2718
      5  CB        28.4160   24.4550   32.6360 C.3    29  PHE29       0.0547
      6  CG        27.3200   25.3770   32.5780 C.ar   29  PHE29      -0.0202
      7  CD1       27.5900   26.6810   33.0980 C.ar   29  PHE29      -0.0042
      8  CD2       26.0150   24.8580   32.1270 C.ar   29  PHE29      -0.0042
      9  CE1       26.5840   27.4980   33.1780 C.ar   29  PHE29      -0.0003
     10  CE2       24.9920   25.6720   32.1780 C.ar   29  PHE29      -0.0003
     11  CZ        25.2770   27.0070   32.7190 C.ar   29  PHE29      -0.0000
     12  N         26.6780   22.4690   34.4790 N.am   30  PHE30      -0.1976
     13  CA        25.4970   21.9220   35.3000 C.3    30  PHE30       0.1639
     14  C         25.8420   21.4690   36.7100 C.2    30  PHE30       0.2290
     15  O         25.0330   21.6760   37.6050 O.2    30  PHE30      -0.2864
     16  CB        24.5780   20.7300   34.5980 C.3    30  PHE30       0.0560
     17  CG        23.7360   21.2810   33.5340 C.ar   30  PHE30      -0.0200
     18  CD1       24.0670   21.2040   32.1950 C.ar   30  PHE30      -0.0042
     19  CD2       22.6660   21.8800   33.9360 C.ar   30  PHE30      -0.0042
     20  CE1       23.2920   21.6980   31.2270 C.ar   30  PHE30      -0.0003
     21  CE2       21.9030   22.4030   32.9740 C.ar   30  PHE30      -0.0003
     22  CZ        22.2120   22.3000   31.6160 C.ar   30  PHE30      -0.0000
     23  N         26.1850   24.7530   38.5030 N.3    33  VAL33      -0.1245
     24  CA        24.8650   25.1890   38.7060 C.3    33  VAL33       0.1561
     25  C         24.0920   24.5130   39.8960 C.2    33  VAL33       0.2260
     26  O         23.6120   25.2440   40.7160 O.2    33  VAL33      -0.2867
     27  CB        23.8810   24.8990   37.5030 C.3    33  VAL33       0.0252
     28  CG1       22.4090   25.1230   37.8660 C.3    33  VAL33       0.0019
     29  CG2       24.4230   25.6860   36.2420 C.3    33  VAL33       0.0019
     30  N         14.8640   20.7620   34.3060 N.3    44  PHE44      -0.1241
     31  CA        15.4710   20.3080   33.0680 C.3    44  PHE44       0.1605
     32  C         15.0470   18.7760   32.8530 C.2    44  PHE44       0.2264
     33  O         15.3590   17.9390   33.6920 O.2    44  PHE44      -0.2867
     34  CB        17.0410   20.5470   33.1930 C.3    44  PHE44       0.0534
     35  CG        17.6760   22.0630   33.3710 C.ar   44  PHE44      -0.0203
     36  CD1       18.0910   22.5650   34.6110 C.ar   44  PHE44      -0.0042
     37  CD2       17.8440   22.9070   32.2670 C.ar   44  PHE44      -0.0042
     38  CE1       18.6970   23.9190   34.7610 C.ar   44  PHE44      -0.0003
     39  CE2       18.4550   24.2610   32.4050 C.ar   44  PHE44      -0.0003
     40  CZ        18.8930   24.7690   33.6530 C.ar   44  PHE44      -0.0000
     41  N         15.7110   16.3610   30.9120 N.3    46  PHE46      -0.1241
     42  CA        16.6640   15.4100   30.8500 C.3    46  PHE46       0.1605
     43  C         17.3910   15.2990   32.1730 C.2    46  PHE46       0.2264
     44  O         18.1970   14.4580   32.2860 O.2    46  PHE46      -0.2867
     45  CB        17.7400   15.8440   29.7210 C.3    46  PHE46       0.0534
     46  CG        18.3110   17.3820   29.7270 C.ar   46  PHE46      -0.0203
     47  CD1       17.6790   18.2990   29.0180 C.ar   46  PHE46      -0.0042
     48  CD2       19.3740   17.8610   30.5620 C.ar   46  PHE46      -0.0042
     49  CE1       18.0830   19.6950   29.1650 C.ar   46  PHE46      -0.0003
     50  CE2       19.8000   19.2470   30.7070 C.ar   46  PHE46      -0.0003
     51  CZ        19.1490   20.1700   30.0170 C.ar   46  PHE46      -0.0000
     52  N         22.4200   21.7620   24.5710 N.3    63  HIS63      -0.1226
     53  CA        21.9170   22.7640   25.4070 C.3    63  HIS63       0.1752
     54  C         23.0250   23.8210   26.0500 C.2    63  HIS63       0.2592
     55  O         22.9690   25.0650   26.0200 O.2    63  HIS63      -0.2718
     56  CB        21.0810   21.9450   26.4800 C.3    63  HIS63       0.0759
     57  CG        19.5730   21.6460   26.0690 C.ar   63  HIS63       0.0818
     58  ND1       18.6510   22.2970   26.6640 N.ar   63  HIS63      -0.2268
     59  CD2       18.9270   20.7810   25.1790 C.ar   63  HIS63       0.1154
     60  CE1       17.3640   21.8260   26.1660 C.ar   63  HIS63       0.1986
     61  NE2       17.5290   20.8480   25.2060 N.ar   63  HIS63      -0.2212
     62  N         23.9070   23.3580   26.7900 N.am   64  ALA64      -0.2033
     63  CA        24.8960   24.2890   27.5660 C.3    64  ALA64       0.1283
     64  C         25.8930   25.1310   26.6160 C.3    64  ALA64       0.2036
     65  O         26.0980   26.3970   26.7400 O.3    64  ALA64      -0.2185
     66  CB        25.6480   23.4480   28.4900 C.3    64  ALA64       0.0262
     67  N         24.3950   28.1840   25.3320 N.3    67  VAL67      -0.1245
     68  CA        24.5670   29.2940   26.3230 C.3    67  VAL67       0.1561
     69  C         25.9610   30.2080   26.2500 C.2    67  VAL67       0.2260
     70  O         26.0120   31.4850   26.2380 O.2    67  VAL67      -0.2867
     71  CB        24.1490   28.8030   27.7590 C.3    67  VAL67       0.0252
     72  CG1       24.4320   29.9200   28.8550 C.3    67  VAL67       0.0019
     73  CG2       22.6300   28.1480   27.7620 C.3    67  VAL67       0.0019
     74  N         12.0160   30.4300   28.5250 N.3    97  HIS97      -0.1241
     75  CA        12.4480   30.4940   29.9440 C.3    97  HIS97       0.1621
     76  C         11.2730   30.5580   30.9090 C.2    97  HIS97       0.2264
     77  O         11.1820   29.9370   31.9970 O.2    97  HIS97      -0.2867
     78  CB        13.6370   31.6270   30.2680 C.3    97  HIS97       0.0745
     79  CG        14.9600   31.2000   29.7340 C.ar   97  HIS97       0.0817
     80  ND1       15.4010   31.5240   28.4670 N.ar   97  HIS97      -0.2268
     81  CD2       15.7760   30.4330   30.2770 C.ar   97  HIS97       0.1154
     82  CE1       16.5450   30.9480   28.1780 C.ar   97  HIS97       0.1986
     83  NE2       16.8280   30.2560   29.3680 N.ar   97  HIS97      -0.2212
     84  N         23.5000   31.1560   37.1560 N.3   110  VAL110     -0.1245
     85  CA        24.1350   30.8520   35.9030 C.3   110  VAL110      0.1561
     86  C         25.4530   31.8500   35.6130 C.2   110  VAL110      0.2260
     87  O         26.4850   31.4200   35.1710 O.2   110  VAL110     -0.2867
     88  CB        23.1110   30.6850   34.7150 C.3   110  VAL110      0.0252
     89  CG1       23.8180   30.4830   33.3790 C.3   110  VAL110      0.0019
     90  CG2       21.9500   29.5070   34.9200 C.3   110  VAL110      0.0019
@<TRIPOS>BOND
     1    52    53    1
     2    59    61   ar
     3    59    57   ar
     4    61    60   ar
     5    67    68    1
     6    53    54    1
     7    53    56    1
     8    55    54    2
     9    54    62   am
    10    57    56    1
    11    57    58   ar
    12    60    58   ar
    13    70    69    2
    14    69    68    1
    15    68    71    1
    16    64    65    1
    17    64    63    1
    18    62    63    1
    19    63    66    1
    20    71    73    1
    21    71    72    1
    22    82    80   ar
    23    82    83   ar
    24    80    79   ar
    25    74    75    1
    26    47    49   ar
    27    47    46   ar
    28    49    51   ar
    29    83    81   ar
    30    45    46    1
    31    45    42    1
    32    46    48   ar
    33    79    78    1
    34    79    81   ar
    35    75    78    1
    36    75    76    1
    37    51    50   ar
    38    48    50   ar
    39    42    41    1
    40    42    43    1
    41    76    77    2
    42    20    22   ar
    43    20    18   ar
    44    22    21   ar
    45     8    10   ar
    46     8     6   ar
    47    43    44    2
    48    10    11   ar
    49    18    17   ar
    50    37    39   ar
    51    37    35   ar
    52    39    40   ar
    53     6     5    1
    54     6     7   ar
    55     5     2    1
    56    11     9   ar
    57    32    31    1
    58    32    33    2
    59    21    19   ar
    60    31    34    1
    61    31    30    1
    62     7     9   ar
    63    34    35    1
    64    35    36   ar
    65    89    88    1
    66    17    19   ar
    67    17    16    1
    68    40    38   ar
    69     1     2    1
    70     2     3    1
    71    12     3   am
    72    12    13    1
    73    16    13    1
    74    36    38   ar
    75    88    90    1
    76    88    85    1
    77     3     4    2
    78    87    86    2
    79    13    14    1
    80    86    85    1
    81    85    84    1
    82    29    27    1
    83    14    15    2
    84    27    28    1
    85    27    24    1
    86    23    24    1
    87    24    25    1
    88    25    26    2
