@<TRIPOS>MOLECULE
tmp/1lhcB01.pdb
 221 222 0 0 0
SMALL
GASTEIGER

@<TRIPOS>ATOM
      1  N         22.5200   -7.1190   18.4480 N.3    43  HIS43      -0.1241
      2  CA        22.3520   -8.4990   17.9840 C.3    43  HIS43       0.1621
      3  C         21.5930   -8.5770   16.6640 C.2    43  HIS43       0.2264
      4  O         21.6090   -9.6460   16.0380 O.2    43  HIS43      -0.2867
      5  CB        21.7630   -9.4640   19.0140 C.3    43  HIS43       0.0745
      6  CG        20.2730   -9.4280   19.1150 C.ar   43  HIS43       0.0817
      7  ND1       19.5710   -8.7730   20.0970 N.ar   43  HIS43      -0.2268
      8  CD2       19.3360  -10.0110   18.3080 C.ar   43  HIS43       0.1154
      9  CE1       18.2700   -8.9540   19.8890 C.ar   43  HIS43       0.1986
     10  NE2       18.1190   -9.7010   18.8210 N.ar   43  HIS43      -0.2212
     11  N         25.8850  -11.3410   15.5830 N.3    47  TYR47      -0.1241
     12  CA        25.6340  -12.4880   16.4890 C.3    47  TYR47       0.1605
     13  C         26.3800  -13.7010   15.9100 C.2    47  TYR47       0.2264
     14  O         25.8100  -14.5420   15.1860 O.2    47  TYR47      -0.2867
     15  CB        24.1380  -12.7390   16.6520 C.3    47  TYR47       0.0534
     16  CG        23.8240  -13.6680   17.8030 C.ar   47  TYR47      -0.0201
     17  CD1       24.1290  -13.2520   19.1010 C.ar   47  TYR47      -0.0009
     18  CD2       23.2920  -14.9310   17.6120 C.ar   47  TYR47      -0.0009
     19  CE1       23.8810  -14.0730   20.1940 C.ar   47  TYR47       0.0417
     20  CE2       23.0470  -15.7830   18.6910 C.ar   47  TYR47       0.0417
     21  CZ        23.3450  -15.3430   19.9800 C.ar   47  TYR47       0.1957
     22  OH        23.0820  -16.1570   21.0430 O.3    47  TYR47      -0.2866
     23  N         25.3710  -17.4010   15.2970 N.3    50  TRP50      -0.1241
     24  CA        24.3950  -17.6950   14.2540 C.3    50  TRP50       0.1605
     25  C         24.9460  -17.1920   12.9180 C.2    50  TRP50       0.2264
     26  O         24.1820  -17.0880   11.9570 O.2    50  TRP50      -0.2867
     27  CB        22.9900  -17.2070   14.4640 C.3    50  TRP50       0.0550
     28  CG        22.2850  -17.7030   15.6690 C.ar   50  TRP50       0.0003
     29  CD1       22.6190  -18.7480   16.4830 C.ar   50  TRP50       0.0946
     30  CD2       21.0530  -17.1760   16.1940 C.ar   50  TRP50       0.0152
     31  NE1       21.7000  -18.8990   17.4930 N.ar   50  TRP50      -0.2442
     32  CE2       20.7330  -17.9450   17.3380 C.ar   50  TRP50       0.0810
     33  CE3       20.2230  -16.1290   15.8040 C.ar   50  TRP50       0.0012
     34  CZ2       19.5990  -17.6880   18.1040 C.ar   50  TRP50       0.0191
     35  CZ3       19.0930  -15.8920   16.5600 C.ar   50  TRP50       0.0001
     36  CH2       18.7720  -16.6450   17.6840 C.ar   50  TRP50       0.0015
     37  N         28.0730  -10.5150   23.1160 N.3    92  TRP92      -0.1241
     38  CA        27.3150  -11.5680   22.3880 C.3    92  TRP92       0.1605
     39  C         27.8220  -12.9620   22.8360 C.2    92  TRP92       0.2264
     40  O         27.2150  -13.9700   22.3820 O.2    92  TRP92      -0.2867
     41  CB        27.5350  -11.4370   20.9040 C.3    92  TRP92       0.0550
     42  CG        28.9750  -11.4100   20.5200 C.ar   92  TRP92       0.0003
     43  CD1       29.7370  -10.3010   20.2810 C.ar   92  TRP92       0.0946
     44  CD2       29.8290  -12.5450   20.2750 C.ar   92  TRP92       0.0152
     45  NE1       31.0010  -10.6700   19.8900 N.ar   92  TRP92      -0.2442
     46  CE2       31.0800  -12.0390   19.8660 C.ar   92  TRP92       0.0810
     47  CE3       29.6360  -13.9190   20.3460 C.ar   92  TRP92       0.0012
     48  CZ2       32.1480  -12.8650   19.5570 C.ar   92  TRP92       0.0191
     49  CZ3       30.6870  -14.7530   20.0120 C.ar   92  TRP92       0.0001
     50  CH2       31.9240  -14.2380   19.6520 C.ar   92  TRP92       0.0015
     51  N         28.1890  -14.0220   26.0490 N.3    94  GLU94      -0.1231
     52  CA        27.4420  -14.4590   27.2030 C.3    94  GLU94       0.1699
     53  C         25.9820  -14.1040   27.3290 C.2    94  GLU94       0.2592
     54  O         25.1100  -15.0210   27.1880 O.2    94  GLU94      -0.2718
     55  CB        28.1200  -13.9890   28.5130 C.3    94  GLU94       0.0402
     56  CG        27.5000  -14.5830   29.7950 C.3    94  GLU94       0.1161
     57  CD        28.0900  -13.9390   31.0350 C.2    94  GLU94       0.3649
     58  OE1       28.8510  -12.9650   30.9180 O.co2  94  GLU94      -0.2457
     59  OE2       27.7290  -14.4820   32.0860 O.co2  94  GLU94      -0.2457
     60  N         25.6830  -12.8340   27.6290 N.am   95  ASN95      -0.1960
     61  CA        24.3070  -12.4470   27.9280 C.3    95  ASN95       0.1819
     62  C         23.7240  -11.2910   27.1460 C.2    95  ASN95       0.2621
     63  O         22.6800  -10.7720   27.6450 O.2    95  ASN95      -0.2715
     64  CB        24.2200  -12.2020   29.4680 C.3    95  ASN95       0.1195
     65  CG        25.2030  -11.0870   29.8650 C.2    95  ASN95       0.2630
     66  OD1       26.0070  -10.6780   29.0020 O.2    95  ASN95      -0.2716
     67  ND2       25.1320  -10.6570   31.1140 N.am   95  ASN95      -0.0877
     68  N         24.2920  -10.8980   26.0400 N.am   96  LEU96      -0.1977
     69  CA        23.7900   -9.7570   25.2440 C.3    96  LEU96       0.1596
     70  C         23.8590   -8.4540   26.0550 C.2    96  LEU96       0.2287
     71  O         23.0780   -7.5100   25.8240 O.2    96  LEU96      -0.2864
     72  CB        22.3790  -10.0200   24.7260 C.3    96  LEU96       0.0297
     73  CG        22.0740  -11.0350   23.6830 C.3    96  LEU96       0.0022
     74  CD1       20.7310  -10.7490   22.9720 C.3    96  LEU96       0.0001
     75  CD2       23.1800  -11.1250   22.6630 C.3    96  LEU96       0.0001
     76  N         20.1420  -16.9480   33.1460 N.3   171  ILE171     -0.1245
     77  CA        20.9860  -15.9470   32.4970 C.3   171  ILE171      0.1561
     78  C         21.4090  -14.8500   33.4900 C.2   171  ILE171      0.2260
     79  O         20.6380  -14.3960   34.3280 O.2   171  ILE171     -0.2867
     80  CB        20.3620  -15.3800   31.1700 C.3   171  ILE171      0.0252
     81  CG1       20.2210  -16.6060   30.2360 C.3   171  ILE171      0.0019
     82  CG2       21.1970  -14.2510   30.5360 C.3   171  ILE171      0.0019
     83  CD1       20.5200  -16.4050   28.7490 C.3   171  ILE171      0.0001
     84  N          3.8760   -9.8430   25.3900 N.3   191  ASP191     -0.1225
     85  CA         5.3520   -9.8160   25.3270 C.3   191  ASP191      0.1805
     86  C          5.7770   -9.4730   23.8960 C.2   191  ASP191      0.2598
     87  O          4.9200   -9.3620   23.0150 O.2   191  ASP191     -0.2718
     88  CB         5.8280  -11.2260   25.7330 C.3   191  ASP191      0.1424
     89  CG         7.3040  -11.4210   25.9270 C.2   191  ASP191      0.3668
     90  OD1        8.0440  -10.4240   25.9850 O.co2 191  ASP191     -0.2456
     91  OD2        7.7990  -12.5820   26.0500 O.co2 191  ASP191     -0.2456
     92  N          7.0790   -9.2850   23.7290 N.am  192  ALA192     -0.1966
     93  CA         7.7080   -9.1350   22.4220 C.3   192  ALA192      0.1728
     94  C          8.0600  -10.5920   22.0190 C.2   192  ALA192      0.2616
     95  O          7.8580  -11.4790   22.8650 O.2   192  ALA192     -0.2715
     96  CB         8.9350   -8.2660   22.4590 C.3   192  ALA192      0.0334
     97  N          8.4970  -10.7910   20.8220 N.am  193  CYS193     -0.1954
     98  CA         8.8670  -12.1550   20.3420 C.3   193  CYS193      0.1843
     99  C          9.8990  -11.9720   19.2350 C.2   193  CYS193      0.2625
    100  O         10.2260  -10.7900   18.9450 O.2   193  CYS193     -0.2714
    101  CB         7.6070  -12.8810   19.8770 C.3   193  CYS193      0.0997
    102  SG         7.8000  -14.7080   19.8430 S.3   193  CYS193     -0.0797
    103  N         10.3810  -13.0630   18.6590 N.am  194  GLU194     -0.1963
    104  CA        11.3700  -12.9430   17.5600 C.3   194  GLU194      0.1733
    105  C         10.7410  -12.0630   16.4760 C.2   194  GLU194      0.2616
    106  O          9.5200  -12.1720   16.2490 O.2   194  GLU194     -0.2715
    107  CB        11.7140  -14.2750   16.9100 C.3   194  GLU194      0.0429
    108  CG        12.9600  -14.3120   15.9860 C.3   194  GLU194      0.1163
    109  CD        13.8380  -15.5220   16.2520 C.2   194  GLU194      0.3649
    110  OE1       14.0950  -15.6780   17.4890 O.co2 194  GLU194     -0.2457
    111  OE2       14.2520  -16.2850   15.3870 O.co2 194  GLU194     -0.2457
    112  N         11.5680  -11.2660   15.8490 N.am  195  GLY195     -0.1955
    113  CA        11.1480  -10.3140   14.8210 C.3   195  GLY195      0.1869
    114  C         11.0180   -8.9030   15.3930 C.2   195  GLY195      0.2309
    115  O         11.1490   -7.9380   14.6150 O.2   195  GLY195     -0.2863
    116  N         13.0000   -7.6760   17.9370 N.3   197  SER197     -0.1217
    117  CA        14.3010   -7.1700   18.4030 C.3   197  SER197      0.1889
    118  C         14.5920   -5.7950   17.7770 C.2   197  SER197      0.2288
    119  O         14.3470   -5.5620   16.5850 O.2   197  SER197     -0.2866
    120  CB        15.4890   -8.0660   18.0990 C.3   197  SER197      0.2089
    121  OG        15.4130   -9.3160   18.7780 O.3   197  SER197     -0.2183
    122  N         14.1330   -3.7900   22.6500 N.3   217  VAL217     -0.1231
    123  CA        13.8120   -5.2410   22.6950 C.3   217  VAL217      0.1692
    124  C         15.1370   -6.0070   22.5040 C.2   217  VAL217      0.2593
    125  O         15.8020   -5.9000   21.4550 O.2   217  VAL217     -0.2718
    126  CB        12.7860   -5.6040   21.5860 C.3   217  VAL217      0.0266
    127  CG1       12.4490   -7.1200   21.6100 C.3   217  VAL217      0.0020
    128  CG2       11.5170   -4.7710   21.6670 C.3   217  VAL217      0.0020
    129  N         15.4660   -6.7820   23.5310 N.am  218  SER218     -0.1938
    130  CA        16.7450   -7.4930   23.5350 C.3   218  SER218      0.2055
    131  C         16.6700   -8.9970   23.5040 C.2   218  SER218      0.2643
    132  O         17.1660   -9.5910   22.5130 O.2   218  SER218     -0.2714
    133  CB        17.6410   -7.0210   24.6960 C.3   218  SER218      0.2130
    134  OG        18.9700   -7.5110   24.4350 O.3   218  SER218     -0.2179
    135  N         16.1280   -9.6080   24.5420 N.am  219  TRP219     -0.1959
    136  CA        16.0190  -11.0910   24.5950 C.3   219  TRP219      0.1771
    137  C         14.8870  -11.5430   25.4920 C.2   219  TRP219      0.2620
    138  O         14.2710  -10.7740   26.2460 O.2   219  TRP219     -0.2715
    139  CB        17.3770  -11.7130   24.9940 C.3   219  TRP219      0.0590
    140  CG        17.9150  -11.3040   26.3140 C.ar  219  TRP219      0.0006
    141  CD1       18.7020  -10.2120   26.5860 C.ar  219  TRP219      0.0946
    142  CD2       17.7520  -11.9850   27.5690 C.ar  219  TRP219      0.0152
    143  NE1       19.0140  -10.1500   27.9260 N.ar  219  TRP219     -0.2442
    144  CE2       18.4620  -11.2410   28.5470 C.ar  219  TRP219      0.0810
    145  CE3       17.0780  -13.1370   27.9530 C.ar  219  TRP219      0.0012
    146  CZ2       18.4910  -11.6140   29.8910 C.ar  219  TRP219      0.0191
    147  CZ3       17.1110  -13.5170   29.2780 C.ar  219  TRP219      0.0001
    148  CH2       17.8030  -12.7730   30.2460 C.ar  219  TRP219      0.0015
    149  N         14.5950  -12.8370   25.4070 N.am  220  GLY220     -0.1940
    150  CA        13.5690  -13.4610   26.2810 C.3   220  GLY220      0.2014
    151  C         13.6230  -14.9670   25.9710 C.2   220  GLY220      0.2639
    152  O         14.0480  -15.3050   24.8550 O.2   220  GLY220     -0.2714
    153  N         13.1950  -15.7610   26.9100 N.am  221  GLU221     -0.1963
    154  CA        13.2450  -17.2550   26.6310 C.3   221  GLU221      0.1733
    155  C         11.8580  -17.6690   26.2240 C.2   221  GLU221      0.2617
    156  O         10.9700  -17.8240   27.0690 O.2   221  GLU221     -0.2715
    157  CB        13.7720  -17.9380   27.8900 C.3   221  GLU221      0.0429
    158  CG        15.2320  -17.5570   28.2360 C.3   221  GLU221      0.1163
    159  CD        15.6610  -17.8200   29.6440 C.2   221  GLU221      0.3649
    160  OE1       14.9000  -17.3760   30.5320 O.co2 221  GLU221     -0.2457
    161  OE2       16.7080  -18.4040   29.9200 O.co2 221  GLU221     -0.2457
    162  N         11.6710  -17.8230   24.9280 N.am  222  GLY222     -0.1940
    163  CA        10.2710  -18.0970   24.4180 C.3   222  GLY222      0.2014
    164  C          9.5940  -16.6950   24.4180 C.2   222  GLY222      0.2639
    165  O         10.2800  -15.6600   24.5460 O.2   222  GLY222     -0.2714
    166  N          8.2850  -16.7400   24.2850 N.am  223  CYS223     -0.1967
    167  CA         7.4210  -15.5630   24.2040 C.3   223  CYS223      0.1712
    168  C          6.1210  -15.7650   24.9780 C.2   223  CYS223      0.2296
    169  O          5.3590  -16.7300   24.7550 O.2   223  CYS223     -0.2864
    170  CB         7.0880  -15.2140   22.7620 C.3   223  CYS223      0.0983
    171  SG         8.4630  -15.2100   21.6630 S.3   223  CYS223     -0.0798
    172  N          5.5660  -16.5940   27.9750 N.3   225  ARG225     -0.1245
    173  CA         5.5240  -17.8220   28.8170 C.3   225  ARG225      0.1563
    174  C          5.2470  -17.3520   30.2390 C.2   225  ARG225      0.2260
    175  O          5.8320  -16.3020   30.5940 O.2   225  ARG225     -0.2867
    176  CB         6.8160  -18.6080   28.8110 C.3   225  ARG225      0.0307
    177  CG         7.3250  -19.1500   27.4820 C.3   225  ARG225      0.0489
    178  CD         7.7040  -20.6030   27.6670 C.3   225  ARG225      0.2205
    179  NE         8.4670  -21.1250   26.5460 N.pl3 225  ARG225     -0.0865
    180  CZ         9.7850  -21.3350   26.5820 C.cat 225  ARG225      0.5346
    181  NH1       10.4800  -21.1490   27.7160 N.pl3 225  ARG225      0.1354
    182  NH2       10.4170  -21.7750   25.5010 N.pl3 225  ARG225      0.1354
    183  N          9.9730  -13.3420   31.5080 N.3   229  TYR229     -0.1227
    184  CA         9.8860  -11.9050   31.2090 C.3   229  TYR229      0.1736
    185  C         10.7480  -11.5240   30.0320 C.2   229  TYR229      0.2596
    186  O         11.7780  -12.1560   29.7190 O.2   229  TYR229     -0.2718
    187  CB        10.2600  -11.0800   32.4690 C.3   229  TYR229      0.0548
    188  CG         9.3870  -11.4480   33.6400 C.ar  229  TYR229     -0.0200
    189  CD1        8.1330  -10.8730   33.8050 C.ar  229  TYR229     -0.0009
    190  CD2        9.7970  -12.4200   34.5810 C.ar  229  TYR229     -0.0009
    191  CE1        7.2940  -11.2170   34.8640 C.ar  229  TYR229      0.0417
    192  CE2        8.9910  -12.7630   35.6610 C.ar  229  TYR229      0.0417
    193  CZ         7.7280  -12.1750   35.7820 C.ar  229  TYR229      0.1957
    194  OH         6.8700  -12.4920   36.8140 O.3   229  TYR229     -0.2866
    195  N         10.3180  -10.4680   29.3330 N.am  230  GLY230     -0.1942
    196  CA        11.1280   -9.9790   28.1830 C.3   230  GLY230      0.2014
    197  C         12.2220   -9.0720   28.8020 C.2   230  GLY230      0.2639
    198  O         11.9580   -8.4210   29.7900 O.2   230  GLY230     -0.2714
    199  N         13.3620   -9.0930   28.1500 N.am  231  PHE231     -0.1959
    200  CA        14.5110   -8.2650   28.5370 C.3   231  PHE231      0.1771
    201  C         14.7480   -7.1720   27.4930 C.2   231  PHE231      0.2619
    202  O         14.6180   -7.4130   26.2910 O.2   231  PHE231     -0.2715
    203  CB        15.7630   -9.1130   28.8040 C.3   231  PHE231      0.0574
    204  CG        15.6830   -9.7610   30.1600 C.ar  231  PHE231     -0.0200
    205  CD1       14.8610  -10.8790   30.3360 C.ar  231  PHE231     -0.0042
    206  CD2       16.4040   -9.2390   31.2360 C.ar  231  PHE231     -0.0042
    207  CE1       14.7220  -11.4670   31.5870 C.ar  231  PHE231     -0.0003
    208  CE2       16.2650   -9.8160   32.5060 C.ar  231  PHE231     -0.0003
    209  CZ        15.4410  -10.9460   32.6820 C.ar  231  PHE231     -0.0000
    210  N         15.1320   -6.0180   28.0090 N.am  232  TYR232     -0.1974
    211  CA        15.3730   -4.8130   27.1620 C.3   232  TYR232      0.1639
    212  C         16.6810   -4.1310   27.5200 C.2   232  TYR232      0.2290
    213  O         17.0640   -4.1570   28.7030 O.2   232  TYR232     -0.2864
    214  CB        14.2190   -3.8020   27.5520 C.3   232  TYR232      0.0560
    215  CG        12.8700   -4.4210   27.2100 C.ar  232  TYR232     -0.0198
    216  CD1       12.3490   -4.2650   25.9110 C.ar  232  TYR232     -0.0009
    217  CD2       12.1450   -5.1580   28.1490 C.ar  232  TYR232     -0.0009
    218  CE1       11.1330   -4.8300   25.5780 C.ar  232  TYR232      0.0417
    219  CE2       10.9270   -5.7390   27.7910 C.ar  232  TYR232      0.0417
    220  CZ        10.4400   -5.5900   26.4940 C.ar  232  TYR232      0.1957
    221  OH         9.2440   -6.1340   26.1200 O.3   232  TYR232     -0.2866
@<TRIPOS>BOND
     1    26    25    2
     2    25    24    1
     3    24    27    1
     4    24    23    1
     5    27    28    1
     6   115   114    2
     7   113   114    1
     8   113   112    1
     9    14    13    2
    10   111   109   ar
    11    11    12    1
    12    28    30   ar
    13    28    29   ar
    14    33    30   ar
    15    33    35   ar
    16   112   105   am
    17    13    12    1
    18   108   109    1
    19   108   107    1
    20     4     3    2
    21    30    32   ar
    22   106   105    2
    23   109   110   ar
    24   105   104    1
    25    29    31   ar
    26    12    15    1
    27    35    36   ar
    28   119   118    2
    29    15    16    1
    30     3     2    1
    31   107   104    1
    32    32    31   ar
    33    32    34   ar
    34   104   103    1
    35    18    16   ar
    36    18    20   ar
    37    36    34   ar
    38   118   117    1
    39    16    17   ar
    40   116   117    1
    41     2     1    1
    42     2     5    1
    43   120   117    1
    44   120   121    1
    45     8    10   ar
    46     8     6   ar
    47   103    99   am
    48    20    21   ar
    49    10     9   ar
    50   100    99    2
    51     5     6    1
    52    17    19   ar
    53     6     7   ar
    54    99    98    1
    55    48    50   ar
    56    48    46   ar
    57    50    49   ar
    58   102   101    1
    59   102   171    1
    60    46    45   ar
    61    46    44   ar
    62   101    98    1
    63     9     7   ar
    64    45    43   ar
    65    21    19   ar
    66    21    22    1
    67    49    47   ar
    68    44    47   ar
    69    44    42   ar
    70    43    42   ar
    71    98    97    1
    72    42    41    1
    73    97    94   am
    74    41    38    1
    75   125   124    2
    76   126   127    1
    77   126   128    1
    78   126   123    1
    79   171   170    1
    80    94    93    1
    81    94    95    2
    82    40    39    2
    83    38    39    1
    84    38    37    1
    85    93    96    1
    86    93    92    1
    87   124   123    1
    88   124   129   am
    89   132   131    2
    90   122   123    1
    91    75    73    1
    92   170   167    1
    93    74    73    1
    94    87    86    2
    95   131   130    1
    96   131   135   am
    97   129   130    1
    98   130   133    1
    99    73    72    1
   100    92    86   am
   101    86    85    1
   102   167   166    1
   103   167   168    1
   104   166   164   am
   105   163   164    1
   106   163   162    1
   107   164   165    2
   108   134   133    1
   109   135   136    1
   110   136   139    1
   111   136   137    1
   112    72    69    1
   113   169   168    2
   114   152   151    2
   115   162   155   am
   116   139   140    1
   117    69    68    1
   118    69    70    1
   119    85    84    1
   120    85    88    1
   121   149   137   am
   122   149   150    1
   123   137   138    2
   124   182   180    1
   125   218   216   ar
   126   218   220   ar
   127    88    89    1
   128    71    70    2
   129   216   215   ar
   130    89    90   ar
   131    89    91   ar
   132   151   150    1
   133   151   153   am
   134    68    62   am
   135    51    52    1
   136   221   220    1
   137   155   154    1
   138   155   156    2
   139   202   201    2
   140   140   141   ar
   141   140   142   ar
   142   220   219   ar
   143   179   180    2
   144   179   178    1
   145   180   181    1
   146   141   143   ar
   147   154   153    1
   148   154   157    1
   149    62    63    2
   150    62    61    1
   151   211   212    1
   152   211   214    1
   153   211   210    1
   154    54    53    2
   155    52    53    1
   156    52    55    1
   157   215   214    1
   158   215   217   ar
   159    53    60   am
   160   177   178    1
   161   177   176    1
   162   201   210   am
   163   201   200    1
   164   212   213    2
   165   142   145   ar
   166   142   144   ar
   167    60    61    1
   168   219   217   ar
   169   157   158    1
   170   143   144   ar
   171    61    64    1
   172   145   147   ar
   173   172   173    1
   174   199   200    1
   175   199   197   am
   176   196   197    1
   177   196   195    1
   178   158   159    1
   179    55    56    1
   180   200   203    1
   181   144   146   ar
   182    83    81    1
   183   197   198    2
   184   203   204    1
   185   176   173    1
   186   173   174    1
   187    66    65    2
   188   147   148   ar
   189   195   185   am
   190    64    65    1
   191   159   161   ar
   192   159   160   ar
   193   186   185    2
   194    56    57    1
   195    65    67   am
   196   146   148   ar
   197   185   184    1
   198   204   205   ar
   199   204   206   ar
   200    81    80    1
   201   174   175    2
   202   205   207   ar
   203    82    80    1
   204    58    57   ar
   205    57    59   ar
   206    80    77    1
   207   184   183    1
   208   184   187    1
   209   206   208   ar
   210   207   209   ar
   211   187   188    1
   212    77    76    1
   213    77    78    1
   214   208   209   ar
   215    78    79    2
   216   188   189   ar
   217   188   190   ar
   218   189   191   ar
   219   190   192   ar
   220   191   193   ar
   221   192   193   ar
   222   193   194    1
