@<TRIPOS>MOLECULE
tmp/1lhfB01.pdb
 193 190 0 0 0
SMALL
GASTEIGER

@<TRIPOS>ATOM
      1  N         22.3610   -7.1310   18.1020 N.3    43  HIS43      -0.1241
      2  CA        22.2040   -8.5280   17.7040 C.3    43  HIS43       0.1621
      3  C         21.4370   -8.6590   16.4010 C.2    43  HIS43       0.2264
      4  O         21.3860   -9.7660   15.8210 O.2    43  HIS43      -0.2867
      5  CB        21.6580   -9.4760   18.7680 C.3    43  HIS43       0.0745
      6  CG        20.1870   -9.3940   18.9880 C.ar   43  HIS43       0.0817
      7  ND1       19.5750   -8.7580   20.0360 N.ar   43  HIS43      -0.2268
      8  CD2       19.1780   -9.9290   18.2390 C.ar   43  HIS43       0.1154
      9  CE1       18.2630   -8.8840   19.9140 C.ar   43  HIS43       0.1986
     10  NE2       18.0130   -9.5920   18.8290 N.ar   43  HIS43      -0.2212
     11  N         25.6040  -11.4800   15.3630 N.3    47  TYR47      -0.1241
     12  CA        25.3710  -12.6640   16.2000 C.3    47  TYR47       0.1605
     13  C         26.1510  -13.8180   15.5590 C.2    47  TYR47       0.2264
     14  O         25.5840  -14.6210   14.8110 O.2    47  TYR47      -0.2867
     15  CB        23.9080  -12.9870   16.4820 C.3    47  TYR47       0.0534
     16  CG        23.7080  -13.7450   17.7870 C.ar   47  TYR47      -0.0201
     17  CD1       24.1930  -13.2150   18.9880 C.ar   47  TYR47      -0.0009
     18  CD2       23.0520  -14.9690   17.8350 C.ar   47  TYR47      -0.0009
     19  CE1       24.0590  -13.9000   20.1880 C.ar   47  TYR47       0.0417
     20  CE2       22.8830  -15.6580   19.0310 C.ar   47  TYR47       0.0417
     21  CZ        23.3940  -15.1230   20.2080 C.ar   47  TYR47       0.1957
     22  OH        23.2190  -15.8200   21.3770 O.3    47  TYR47      -0.2866
     23  N         25.1880  -17.5310   15.0770 N.3    50  TRP50      -0.1241
     24  CA        24.2060  -17.8860   14.0450 C.3    50  TRP50       0.1605
     25  C         24.7240  -17.3370   12.7150 C.2    50  TRP50       0.2264
     26  O         23.9630  -17.1780   11.7580 O.2    50  TRP50      -0.2867
     27  CB        22.8000  -17.4920   14.3550 C.3    50  TRP50       0.0550
     28  CG        22.1210  -17.9410   15.5940 C.ar   50  TRP50       0.0003
     29  CD1       22.4000  -19.0090   16.3960 C.ar   50  TRP50       0.0946
     30  CD2       20.9420  -17.3340   16.1740 C.ar   50  TRP50       0.0152
     31  NE1       21.5130  -19.0830   17.4480 N.ar   50  TRP50      -0.2442
     32  CE2       20.6210  -18.0630   17.3340 C.ar   50  TRP50       0.0810
     33  CE3       20.1590  -16.2370   15.8050 C.ar   50  TRP50       0.0012
     34  CZ2       19.5240  -17.7440   18.1210 C.ar   50  TRP50       0.0191
     35  CZ3       19.0750  -15.9160   16.5960 C.ar   50  TRP50       0.0001
     36  CH2       18.7520  -16.6540   17.7240 C.ar   50  TRP50       0.0015
     37  N         27.9440  -13.8080   26.0060 N.3    94  GLU94      -0.1182
     38  CA        27.2080  -14.3470   27.1390 C.3    94  GLU94       0.1915
     39  C         25.7490  -13.9680   27.2550 C.2    94  GLU94       0.2634
     40  O         24.8810  -14.8790   27.1320 O.2    94  GLU94      -0.2714
     41  CB        27.8760  -14.0060   28.4730 C.2    94  GLU94       0.0085
     42  CG        27.2730  -14.5960   29.7520 C.2    94  GLU94       0.0835
     43  CD        27.7560  -13.9790   31.0290 C.2    94  GLU94       0.3877
     44  OE1       28.6770  -13.1650   31.0520 O.co2  94  GLU94      -0.2406
     45  OE2       27.1700  -14.3380   32.0590 O.co2  94  GLU94      -0.2406
     46  N         25.4290  -12.6930   27.4460 N.am   95  ASN95      -0.1958
     47  CA        24.0360  -12.3200   27.7710 C.3    95  ASN95       0.1819
     48  C         23.4720  -11.0970   27.0840 C.2    95  ASN95       0.2621
     49  O         22.6140  -10.4070   27.6880 O.2    95  ASN95      -0.2715
     50  CB        24.0180  -12.1540   29.3240 C.3    95  ASN95       0.1195
     51  CG        24.8890  -10.9570   29.7020 C.2    95  ASN95       0.2630
     52  OD1       25.6820  -10.5110   28.8490 O.2    95  ASN95      -0.2716
     53  ND2       24.7110  -10.4580   30.9100 N.am   95  ASN95      -0.0877
     54  N         23.9320  -10.8140   25.8950 N.am   96  LEU96      -0.1977
     55  CA        23.5390   -9.6800   25.0800 C.3    96  LEU96       0.1596
     56  C         23.5660   -8.3720   25.8750 C.2    96  LEU96       0.2287
     57  O         22.6420   -7.5450   25.7250 O.2    96  LEU96      -0.2864
     58  CB        22.2000   -9.9360   24.4010 C.3    96  LEU96       0.0297
     59  CG        22.0210  -11.0630   23.4260 C.3    96  LEU96       0.0022
     60  CD1       20.6320  -11.0080   22.7940 C.3    96  LEU96       0.0001
     61  CD2       23.0910  -11.0150   22.3530 C.3    96  LEU96       0.0001
     62  N          4.3030  -17.4170   20.2510 N.3   146  GLU146     -0.1245
     63  CA         5.5270  -18.1630   20.4110 C.3   146  GLU146      0.1567
     64  C          5.6860  -19.2380   19.3300 C.2   146  GLU146      0.2260
     65  O          6.6650  -19.1140   18.5450 O.2   146  GLU146     -0.2867
     66  CB         5.7030  -18.8910   21.7550 C.3   146  GLU146      0.0388
     67  CG         7.0580  -19.5870   21.8770 C.3   146  GLU146      0.1160
     68  CD         7.5270  -20.1160   23.1770 C.2   146  GLU146      0.3649
     69  OE1        6.7950  -19.9110   24.1560 O.co2 146  GLU146     -0.2457
     70  OE2        8.6050  -20.7220   23.2590 O.co2 146  GLU146     -0.2457
     71  N         19.8010  -16.8980   32.7590 N.3   171  ILE171     -0.1245
     72  CA        20.7230  -15.9180   32.1800 C.3   171  ILE171      0.1561
     73  C         21.1570  -14.9400   33.2710 C.2   171  ILE171      0.2260
     74  O         20.4920  -14.8350   34.3130 O.2   171  ILE171     -0.2867
     75  CB        20.1200  -15.1930   30.9400 C.3   171  ILE171      0.0252
     76  CG1       19.9050  -16.2050   29.7920 C.3   171  ILE171      0.0019
     77  CG2       20.9490  -13.9760   30.4570 C.3   171  ILE171      0.0019
     78  CD1       18.6720  -15.8710   28.9080 C.3   171  ILE171      0.0001
     79  N          3.4390   -9.9020   25.6640 N.3   191  ASP191     -0.1225
     80  CA         4.8960   -9.8790   25.5420 C.3   191  ASP191      0.1805
     81  C          5.3600   -9.3350   24.1860 C.2   191  ASP191      0.2598
     82  O          4.6350   -8.8950   23.3020 O.2   191  ASP191     -0.2718
     83  CB         5.4930  -11.2490   25.8420 C.3   191  ASP191      0.1424
     84  CG         6.9940  -11.3410   26.0040 C.2   191  ASP191      0.3668
     85  OD1        7.6710  -10.2910   26.1130 O.co2 191  ASP191     -0.2456
     86  OD2        7.5530  -12.4620   26.0140 O.co2 191  ASP191     -0.2456
     87  N          6.6700   -9.3740   24.1080 N.am  192  ALA192     -0.1966
     88  CA         7.4720   -9.0500   22.9040 C.3   192  ALA192      0.1728
     89  C          7.8180  -10.4510   22.3600 C.2   192  ALA192      0.2616
     90  O          7.7770  -11.3890   23.1890 O.2   192  ALA192     -0.2715
     91  CB         8.7230   -8.3190   23.3590 C.3   192  ALA192      0.0334
     92  N          8.0950  -10.5560   21.0970 N.am  193  CYS193     -0.1954
     93  CA         8.3980  -11.8850   20.5070 C.3   193  CYS193      0.1843
     94  C          9.4350  -11.6940   19.4160 C.2   193  CYS193      0.2625
     95  O          9.8160  -10.5440   19.1260 O.2   193  CYS193     -0.2714
     96  CB         7.1100  -12.5340   20.0270 C.3   193  CYS193      0.0997
     97  SG         7.1770  -14.3500   19.8580 S.3   193  CYS193     -0.0797
     98  N          9.8540  -12.8000   18.8380 N.am  194  GLU194     -0.1963
     99  CA        10.8670  -12.8360   17.7700 C.3   194  GLU194      0.1733
    100  C         10.4040  -12.0230   16.5620 C.2   194  GLU194      0.2616
    101  O          9.3200  -12.2690   16.0320 O.2   194  GLU194     -0.2715
    102  CB        11.0290  -14.2750   17.2440 C.3   194  GLU194      0.0429
    103  CG        11.5490  -14.4730   15.8330 C.3   194  GLU194      0.1163
    104  CD        13.0310  -14.5900   15.6700 C.2   194  GLU194      0.3649
    105  OE1       13.5520  -15.1690   16.6710 O.co2 194  GLU194     -0.2457
    106  OE2       13.6700  -14.2000   14.7060 O.co2 194  GLU194     -0.2457
    107  N         11.2720  -11.1250   16.1420 N.am  195  GLY195     -0.1955
    108  CA        11.0560  -10.2420   15.0020 C.3   195  GLY195      0.1869
    109  C         10.8860   -8.7940   15.4650 C.2   195  GLY195      0.2309
    110  O         11.0100   -7.8630   14.6430 O.2   195  GLY195     -0.2863
    111  N         12.7840   -7.2880   17.7690 N.3   197  SER197     -0.1217
    112  CA        14.0340   -6.7430   18.2950 C.3   197  SER197      0.1889
    113  C         14.4630   -5.4750   17.5380 C.2   197  SER197      0.2288
    114  O         14.2820   -5.3740   16.3210 O.2   197  SER197     -0.2866
    115  CB        15.2340   -7.6650   18.2840 C.3   197  SER197      0.2089
    116  OG        15.0340   -8.8290   19.0510 O.3   197  SER197     -0.2183
    117  N         13.9540   -3.6790   22.4370 N.3   217  VAL217     -0.1231
    118  CA        13.6180   -5.1240   22.5150 C.3   217  VAL217      0.1692
    119  C         14.9430   -5.8830   22.3440 C.2   217  VAL217      0.2593
    120  O         15.5790   -5.8440   21.2670 O.2   217  VAL217     -0.2718
    121  CB        12.5260   -5.5160   21.4930 C.3   217  VAL217      0.0266
    122  CG1       12.2850   -7.0300   21.4550 C.3   217  VAL217      0.0020
    123  CG2       11.1970   -4.8170   21.7610 C.3   217  VAL217      0.0020
    124  N         15.3210   -6.5650   23.4150 N.am  218  SER218     -0.1938
    125  CA        16.5700   -7.2890   23.4400 C.3   218  SER218      0.2055
    126  C         16.4270   -8.7900   23.3790 C.2   218  SER218      0.2643
    127  O         16.8880   -9.3700   22.3730 O.2   218  SER218     -0.2714
    128  CB        17.5570   -6.8510   24.5070 C.3   218  SER218      0.2130
    129  OG        18.8150   -7.5240   24.3380 O.3   218  SER218     -0.2179
    130  N         15.8590   -9.3640   24.4290 N.am  219  TRP219     -0.1959
    131  CA        15.7520  -10.8240   24.5020 C.3   219  TRP219      0.1771
    132  C         14.6770  -11.3030   25.4690 C.2   219  TRP219      0.2620
    133  O         14.0660  -10.5610   26.2490 O.2   219  TRP219     -0.2715
    134  CB        17.1130  -11.4210   24.9010 C.3   219  TRP219      0.0590
    135  CG        17.6770  -11.0210   26.2130 C.ar  219  TRP219      0.0006
    136  CD1       18.5580   -9.9960   26.4460 C.ar  219  TRP219      0.0946
    137  CD2       17.4540  -11.6340   27.4880 C.ar  219  TRP219      0.0152
    138  NE1       18.9050   -9.9450   27.7670 N.ar  219  TRP219     -0.2442
    139  CE2       18.2500  -10.9400   28.4330 C.ar  219  TRP219      0.0810
    140  CE3       16.6770  -12.7050   27.9150 C.ar  219  TRP219      0.0012
    141  CZ2       18.2740  -11.2800   29.7790 C.ar  219  TRP219      0.0191
    142  CZ3       16.6920  -13.0430   29.2500 C.ar  219  TRP219      0.0001
    143  CH2       17.4730  -12.3470   30.1720 C.ar  219  TRP219      0.0015
    144  N         14.5270  -12.6290   25.3930 N.am  220  GLY220     -0.1940
    145  CA        13.5280  -13.3100   26.2660 C.3   220  GLY220      0.2014
    146  C         13.4880  -14.7740   25.8280 C.2   220  GLY220      0.2639
    147  O         13.7270  -15.0550   24.6490 O.2   220  GLY220     -0.2714
    148  N         13.1980  -15.5980   26.7890 N.am  221  GLU221     -0.1963
    149  CA        13.1290  -17.0670   26.5970 C.3   221  GLU221      0.1733
    150  C         11.6610  -17.4390   26.4190 C.2   221  GLU221      0.2617
    151  O         10.9250  -17.6490   27.3990 O.2   221  GLU221     -0.2715
    152  CB        13.6640  -17.7450   27.8630 C.3   221  GLU221      0.0429
    153  CG        14.8690  -17.1020   28.5570 C.3   221  GLU221      0.1163
    154  CD        14.9870  -17.4390   30.0190 C.2   221  GLU221      0.3649
    155  OE1       14.1150  -17.2930   30.8480 O.co2 221  GLU221     -0.2457
    156  OE2       16.1050  -17.9180   30.3050 O.co2 221  GLU221     -0.2457
    157  N         11.2570  -17.4710   25.1570 N.am  222  GLY222     -0.1940
    158  CA         9.8500  -17.7310   24.7860 C.3   222  GLY222      0.2014
    159  C          8.9810  -16.4870   25.0190 C.2   222  GLY222      0.2639
    160  O          9.2210  -15.6280   25.8870 O.2   222  GLY222     -0.2714
    161  N          7.9110  -16.4480   24.2390 N.am  223  CYS223     -0.1967
    162  CA         6.9220  -15.3840   24.1850 C.3   223  CYS223      0.1712
    163  C          5.6910  -15.6540   25.0440 C.2   223  CYS223      0.2296
    164  O          5.0890  -16.7400   25.0190 O.2   223  CYS223     -0.2864
    165  CB         6.5390  -15.1580   22.7200 C.3   223  CYS223      0.0983
    166  SG         7.9600  -14.9680   21.6190 S.3   223  CYS223     -0.0798
    167  N          4.7150  -16.1090   28.4820 N.3   225  ARG225     -0.1245
    168  CA         4.8590  -17.3150   29.2990 C.3   225  ARG225      0.1563
    169  C          4.7460  -16.8630   30.7620 C.2   225  ARG225      0.2260
    170  O          5.2820  -15.8020   31.1210 O.2   225  ARG225     -0.2867
    171  CB         6.1460  -18.0640   29.0600 C.3   225  ARG225      0.0307
    172  CG         6.4190  -18.6530   27.6940 C.3   225  ARG225      0.0489
    173  CD         7.0370  -19.9990   27.7760 C.3   225  ARG225      0.2205
    174  NE         7.7130  -20.4580   26.5650 N.pl3 225  ARG225     -0.0865
    175  CZ         9.0360  -20.6990   26.5460 C.cat 225  ARG225      0.5346
    176  NH1        9.7310  -20.5780   27.6840 N.pl3 225  ARG225      0.1354
    177  NH2        9.6880  -21.1060   25.4610 N.pl3 225  ARG225      0.1354
    178  N          9.5390  -13.1660   31.5720 N.3   229  TYR229     -0.1227
    179  CA         9.4180  -11.7490   31.1950 C.3   229  TYR229      0.1736
    180  C         10.2440  -11.4140   29.9700 C.2   229  TYR229      0.2596
    181  O         10.9590  -12.2520   29.3950 O.2   229  TYR229     -0.2718
    182  CB         9.6880  -10.8220   32.3780 C.3   229  TYR229      0.0548
    183  CG         8.8500  -11.0760   33.6050 C.ar  229  TYR229     -0.0200
    184  CD1        9.2050  -12.0630   34.5370 C.ar  229  TYR229     -0.0009
    185  CD2        7.6870  -10.3380   33.8480 C.ar  229  TYR229     -0.0009
    186  CE1        8.4280  -12.3110   35.6690 C.ar  229  TYR229      0.0417
    187  CE2        6.8860  -10.5840   34.9530 C.ar  229  TYR229      0.0417
    188  CZ         7.2500  -11.5760   35.8620 C.ar  229  TYR229      0.1957
    189  OH         6.4380  -11.7950   36.9450 O.3   229  TYR229     -0.2866
    190  N         10.0940  -10.1700   29.5390 N.am  230  GLY230     -0.1957
    191  CA        10.8100   -9.6340   28.3640 C.3   230  GLY230      0.1869
    192  C         11.9510   -8.7610   28.9010 C.2   230  GLY230      0.2309
    193  O         11.7920   -8.1550   29.9680 O.2   230  GLY230     -0.2863
@<TRIPOS>BOND
     1    26    25    2
     2    25    24    1
     3    24    27    1
     4    24    23    1
     5    27    28    1
     6   110   109    2
     7   106   104   ar
     8    14    13    2
     9   108   109    1
    10   108   107    1
    11    11    12    1
    12    13    12    1
    13    28    30   ar
    14    28    29   ar
    15   104   103    1
    16   104   105   ar
    17    33    30   ar
    18    33    35   ar
    19     4     3    2
    20   103   102    1
    21   101   100    2
    22   107   100   am
    23    30    32   ar
    24    12    15    1
    25   114   113    2
    26    29    31   ar
    27     3     2    1
    28    15    16    1
    29   100    99    1
    30    35    36   ar
    31   102    99    1
    32    32    31   ar
    33    32    34   ar
    34   113   112    1
    35     2     1    1
    36     2     5    1
    37    36    34   ar
    38   111   112    1
    39    99    98    1
    40    16    18   ar
    41    16    17   ar
    42    18    20   ar
    43     8    10   ar
    44     8     6   ar
    45   115   112    1
    46   115   116    1
    47    65    64    2
    48     5     6    1
    49    10     9   ar
    50    98    94   am
    51     6     7   ar
    52    17    19   ar
    53    20    21   ar
    54    95    94    2
    55    64    63    1
    56    94    93    1
    57    97    96    1
    58    97   166    1
    59     9     7   ar
    60    96    93    1
    61    19    21   ar
    62    21    22    1
    63    62    63    1
    64    63    66    1
    65    93    92    1
    66    92    89   am
    67   120   119    2
    68   122   121    1
    69   121   123    1
    70   121   118    1
    71   166   165    1
    72    66    67    1
    73    67    68    1
    74   119   118    1
    75   119   124   am
    76    61    59    1
    77    89    88    1
    78    89    90    2
    79   127   126    2
    80   117   118    1
    81   165   162    1
    82    60    59    1
    83    88    91    1
    84    88    87    1
    85    68    70   ar
    86    68    69   ar
    87    82    81    2
    88   126   125    1
    89   126   130   am
    90   124   125    1
    91    59    58    1
    92   125   128    1
    93    87    81   am
    94   162   161    1
    95   162   163    1
    96    81    80    1
    97   161   159   am
    98   129   128    1
    99    58    55    1
   100   130   131    1
   101   131   134    1
   102   131   132    1
   103   147   146    2
   104   158   159    1
   105   158   157    1
   106   134   135    1
   107   159   160    2
   108   164   163    2
   109    55    56    1
   110    55    54    1
   111   157   150   am
   112   144   132   am
   113   144   145    1
   114   177   175    1
   115   132   133    2
   116    80    79    1
   117    80    83    1
   118    57    56    2
   119   146   145    1
   120   146   148   am
   121    83    84    1
   122    54    48   am
   123    84    86   ar
   124    84    85   ar
   125    37    38    1
   126   135   136   ar
   127   135   137   ar
   128   150   149    1
   129   150   151    2
   130   136   138   ar
   131   175   174    2
   132   175   176    1
   133   174   173    1
   134   149   148    1
   135   149   152    1
   136    48    49    2
   137    48    47    1
   138    40    39    2
   139    38    39    1
   140    38    41    1
   141    39    46   am
   142    46    47    1
   143   137   140   ar
   144   137   139   ar
   145   172   173    1
   146   172   171    1
   147   138   139   ar
   148    47    50    1
   149   152   153    1
   150   140   142   ar
   151   191   192    1
   152   191   190    1
   153   139   141   ar
   154    41    42    2
   155   167   168    1
   156   153   154    1
   157    52    51    2
   158   192   193    2
   159    78    76    1
   160   171   168    1
   161   142   143   ar
   162   168   169    1
   163    50    51    1
   164   181   180    2
   165   190   180   am
   166    51    53   am
   167    42    43    1
   168   141   143   ar
   169    76    75    1
   170   180   179    1
   171   154   156   ar
   172   154   155   ar
   173    77    75    1
   174   169   170    2
   175    75    72    1
   176    43    44   ar
   177    43    45   ar
   178   179   178    1
   179   179   182    1
   180    72    71    1
   181    72    73    1
   182   182   183    1
   183    73    74    2
   184   183   185   ar
   185   183   184   ar
   186   185   187   ar
   187   184   186   ar
   188   187   188   ar
   189   186   188   ar
   190   188   189    1
