@<TRIPOS>MOLECULE
tmp/1lhgB01.pdb
 182 181 0 0 0
SMALL
GASTEIGER

@<TRIPOS>ATOM
      1  N         22.7220   -7.1060   18.2470 N.3    43  HIS43      -0.1241
      2  CA        22.5260   -8.4930   17.8220 C.3    43  HIS43       0.1621
      3  C         21.7440   -8.5930   16.5170 C.2    43  HIS43       0.2264
      4  O         21.7380   -9.6660   15.8730 O.2    43  HIS43      -0.2867
      5  CB        21.9730   -9.4620   18.8340 C.3    43  HIS43       0.0745
      6  CG        20.4900   -9.4940   18.9570 C.ar   43  HIS43       0.0817
      7  ND1       19.7790   -8.9770   20.0090 N.ar   43  HIS43      -0.2268
      8  CD2       19.5710  -10.0460   18.1090 C.ar   43  HIS43       0.1154
      9  CE1       18.4850   -9.2130   19.8050 C.ar   43  HIS43       0.1986
     10  NE2       18.3460   -9.8530   18.6700 N.ar   43  HIS43      -0.2212
     11  N         25.9170  -11.3200   15.4220 N.3    47  TYR47      -0.1241
     12  CA        25.6370  -12.5040   16.2210 C.3    47  TYR47       0.1605
     13  C         26.3480  -13.7460   15.6500 C.2    47  TYR47       0.2264
     14  O         25.7080  -14.6100   15.0230 O.2    47  TYR47      -0.2867
     15  CB        24.1250  -12.7900   16.3680 C.3    47  TYR47       0.0534
     16  CG        23.8820  -13.6640   17.5860 C.ar   47  TYR47      -0.0201
     17  CD1       24.4280  -13.2590   18.8070 C.ar   47  TYR47      -0.0009
     18  CD2       23.1790  -14.8520   17.5340 C.ar   47  TYR47      -0.0009
     19  CE1       24.2560  -14.0250   19.9590 C.ar   47  TYR47       0.0417
     20  CE2       22.9880  -15.6310   18.6780 C.ar   47  TYR47       0.0417
     21  CZ        23.5260  -15.2060   19.8820 C.ar   47  TYR47       0.1957
     22  OH        23.3500  -15.9730   21.0100 O.3    47  TYR47      -0.2866
     23  N         25.2200  -17.4100   15.3410 N.3    50  TRP50      -0.1241
     24  CA        24.2670  -17.7180   14.2660 C.3    50  TRP50       0.1605
     25  C         24.8870  -17.2180   12.9520 C.2    50  TRP50       0.2264
     26  O         24.1920  -17.1120   11.9330 O.2    50  TRP50      -0.2867
     27  CB        22.8670  -17.2050   14.4580 C.3    50  TRP50       0.0550
     28  CG        22.1400  -17.6400   15.6770 C.ar   50  TRP50       0.0003
     29  CD1       22.4520  -18.6890   16.5070 C.ar   50  TRP50       0.0946
     30  CD2       20.9140  -17.0790   16.1820 C.ar   50  TRP50       0.0152
     31  NE1       21.5240  -18.7890   17.5180 N.ar   50  TRP50      -0.2442
     32  CE2       20.5800  -17.8050   17.3480 C.ar   50  TRP50       0.0810
     33  CE3       20.1100  -16.0250   15.7820 C.ar   50  TRP50       0.0012
     34  CZ2       19.4580  -17.5070   18.1120 C.ar   50  TRP50       0.0191
     35  CZ3       18.9970  -15.7260   16.5460 C.ar   50  TRP50       0.0001
     36  CH2       18.6630  -16.4490   17.6900 C.ar   50  TRP50       0.0015
     37  N         28.2280  -10.4520   23.2190 N.3    92  TRP92      -0.1241
     38  CA        27.4410  -11.4290   22.4370 C.3    92  TRP92       0.1605
     39  C         27.8180  -12.8580   22.8650 C.2    92  TRP92       0.2264
     40  O         27.0980  -13.8180   22.5110 O.2    92  TRP92      -0.2867
     41  CB        27.6690  -11.2640   20.9520 C.3    92  TRP92       0.0550
     42  CG        29.0710  -11.3440   20.4870 C.ar   92  TRP92       0.0003
     43  CD1       29.9140  -10.2970   20.1930 C.ar   92  TRP92       0.0946
     44  CD2       29.8120  -12.5400   20.1940 C.ar   92  TRP92       0.0152
     45  NE1       31.1290  -10.7700   19.7430 N.ar   92  TRP92      -0.2442
     46  CE2       31.0850  -12.1410   19.7260 C.ar   92  TRP92       0.0810
     47  CE3       29.5110  -13.8940   20.2830 C.ar   92  TRP92       0.0012
     48  CZ2       32.0540  -13.0620   19.3590 C.ar   92  TRP92       0.0191
     49  CZ3       30.4720  -14.8090   19.8960 C.ar   92  TRP92       0.0001
     50  CH2       31.7180  -14.4000   19.4560 C.ar   92  TRP92       0.0015
     51  N         28.2300  -13.9450   26.0780 N.3    94  GLU94      -0.1231
     52  CA        27.5260  -14.3750   27.2600 C.3    94  GLU94       0.1699
     53  C         26.1040  -13.9450   27.4490 C.2    94  GLU94       0.2592
     54  O         25.2220  -14.8690   27.5900 O.2    94  GLU94      -0.2718
     55  CB        28.2850  -13.9780   28.5430 C.3    94  GLU94       0.0402
     56  CG        27.6160  -14.4330   29.8490 C.3    94  GLU94       0.1161
     57  CD        28.1460  -13.7260   31.0690 C.2    94  GLU94       0.3649
     58  OE1       28.9210  -12.7780   30.9610 O.co2  94  GLU94      -0.2457
     59  OE2       27.7130  -14.2040   32.1490 O.co2  94  GLU94      -0.2457
     60  N         25.8410  -12.6400   27.4840 N.am   95  ASN95      -0.1960
     61  CA        24.4630  -12.1980   27.8130 C.3    95  ASN95       0.1819
     62  C         23.9590  -11.0060   27.0670 C.2    95  ASN95       0.2621
     63  O         23.0630  -10.3140   27.6240 O.2    95  ASN95      -0.2715
     64  CB        24.3920  -12.0450   29.3580 C.3    95  ASN95       0.1195
     65  CG        25.4340  -11.0560   29.8640 C.2    95  ASN95       0.2630
     66  OD1       26.2720  -10.6020   29.0880 O.2    95  ASN95      -0.2716
     67  ND2       25.3890  -10.6870   31.1420 N.am   95  ASN95      -0.0877
     68  N         24.3960  -10.7280   25.8620 N.am   96  LEU96      -0.1977
     69  CA        23.9630   -9.5540   25.0850 C.3    96  LEU96       0.1596
     70  C         23.9840   -8.2810   25.9330 C.2    96  LEU96       0.2287
     71  O         23.1300   -7.3870   25.7490 O.2    96  LEU96      -0.2864
     72  CB        22.6060   -9.8330   24.4390 C.3    96  LEU96       0.0297
     73  CG        22.5400  -10.8700   23.3380 C.3    96  LEU96       0.0022
     74  CD1       21.1180  -11.0710   22.8480 C.3    96  LEU96       0.0001
     75  CD2       23.4280  -10.4210   22.1890 C.3    96  LEU96       0.0001
     76  N         20.4660  -16.9060   33.0990 N.3   171  ILE171     -0.1245
     77  CA        21.3340  -15.8950   32.4690 C.3   171  ILE171      0.1561
     78  C         21.7040  -14.8430   33.5200 C.2   171  ILE171      0.2260
     79  O         20.9200  -14.5290   34.4260 O.2   171  ILE171     -0.2867
     80  CB        20.6840  -15.2340   31.2170 C.3   171  ILE171      0.0252
     81  CG1       20.3770  -16.3100   30.1560 C.3   171  ILE171      0.0019
     82  CG2       21.5360  -14.0690   30.6740 C.3   171  ILE171      0.0019
     83  CD1       19.7090  -15.7490   28.8610 C.3   171  ILE171      0.0001
     84  N          4.1790   -9.7750   25.0700 N.3   191  ASP191     -0.1225
     85  CA         5.6780   -9.7710   25.0100 C.3   191  ASP191      0.1805
     86  C          6.0900   -9.5200   23.5610 C.2   191  ASP191      0.2598
     87  O          5.2270   -9.4510   22.6840 O.2   191  ASP191     -0.2718
     88  CB         6.1310  -11.1660   25.4850 C.3   191  ASP191      0.1424
     89  CG         7.5980  -11.3610   25.7260 C.2   191  ASP191      0.3668
     90  OD1        8.3670  -10.3830   25.8030 O.co2 191  ASP191     -0.2456
     91  OD2        8.0390  -12.5340   25.8780 O.co2 191  ASP191     -0.2456
     92  N          7.3850   -9.3940   23.3920 N.am  192  ALA192     -0.1966
     93  CA         8.0140   -9.2500   22.0780 C.3   192  ALA192      0.1728
     94  C          8.4010  -10.6780   21.6660 C.2   192  ALA192      0.2616
     95  O          8.3190  -11.5820   22.5180 O.2   192  ALA192     -0.2715
     96  CB         9.2070   -8.3240   22.1500 C.3   192  ALA192      0.0334
     97  N          8.8120  -10.8280   20.4350 N.am  193  CYS193     -0.1954
     98  CA         9.2050  -12.2060   19.9580 C.3   193  CYS193      0.1843
     99  C         10.1660  -12.0000   18.8020 C.2   193  CYS193      0.2625
    100  O         10.6470  -10.8410   18.6000 O.2   193  CYS193     -0.2714
    101  CB         7.9480  -12.9860   19.6690 C.3   193  CYS193      0.0997
    102  SG         7.9560  -14.7760   19.7810 S.3   193  CYS193     -0.0797
    103  N         10.4550  -13.0600   18.0770 N.am  194  GLU194     -0.1963
    104  CA        11.3590  -12.9610   16.9290 C.3   194  GLU194      0.1733
    105  C         10.7960  -11.9610   15.9260 C.2   194  GLU194      0.2616
    106  O          9.6310  -12.0060   15.5620 O.2   194  GLU194     -0.2715
    107  CB        11.6270  -14.2940   16.2520 C.3   194  GLU194      0.0429
    108  CG        12.5550  -15.2490   17.0490 C.3   194  GLU194      0.1163
    109  CD        13.1620  -16.3510   16.2150 C.2   194  GLU194      0.3649
    110  OE1       13.6740  -16.1780   15.1070 O.co2 194  GLU194     -0.2457
    111  OE2       13.0580  -17.4710   16.7700 O.co2 194  GLU194     -0.2457
    112  N         11.6450  -11.0560   15.4990 N.am  195  GLY195     -0.1955
    113  CA        11.4460   -9.9760   14.5770 C.3   195  GLY195      0.1869
    114  C         11.1390   -8.6440   15.2410 C.2   195  GLY195      0.2309
    115  O         10.9140   -7.6540   14.5290 O.2   195  GLY195     -0.2863
    116  N         13.1910   -7.4640   18.0430 N.3   197  SER197     -0.1217
    117  CA        14.4730   -6.9410   18.5110 C.3   197  SER197      0.1889
    118  C         14.8470   -5.6520   17.7600 C.2   197  SER197      0.2288
    119  O         14.6130   -5.5300   16.5610 O.2   197  SER197     -0.2866
    120  CB        15.6400   -7.9210   18.3120 C.3   197  SER197      0.2089
    121  OG        15.4980   -9.0890   19.1100 O.3   197  SER197     -0.2183
    122  N         14.4170   -3.7200   22.6620 N.3   217  VAL217     -0.1231
    123  CA        14.0710   -5.1670   22.7190 C.3   217  VAL217      0.1692
    124  C         15.3740   -5.9420   22.5220 C.2   217  VAL217      0.2593
    125  O         16.0090   -5.8110   21.4530 O.2   217  VAL217     -0.2718
    126  CB        12.9820   -5.4820   21.6760 C.3   217  VAL217      0.0266
    127  CG1       12.4640   -6.9250   21.7300 C.3   217  VAL217      0.0020
    128  CG2       11.7950   -4.5190   21.8000 C.3   217  VAL217      0.0020
    129  N         15.7390   -6.7040   23.5490 N.am  218  SER218     -0.1938
    130  CA        16.9960   -7.4470   23.5170 C.3   218  SER218      0.2055
    131  C         16.8570   -8.9450   23.4540 C.2   218  SER218      0.2643
    132  O         17.2920   -9.5490   22.4420 O.2   218  SER218     -0.2714
    133  CB        17.9650   -7.0040   24.6010 C.3   218  SER218      0.2130
    134  OG        19.3120   -7.1700   24.1700 O.3   218  SER218     -0.2179
    135  N         16.2840   -9.5550   24.4750 N.am  219  TRP219     -0.1959
    136  CA        16.1530  -11.0060   24.5850 C.3   219  TRP219      0.1771
    137  C         15.0600  -11.4460   25.5500 C.2   219  TRP219      0.2620
    138  O         14.4930  -10.7020   26.3460 O.2   219  TRP219     -0.2715
    139  CB        17.4900  -11.6300   25.0160 C.3   219  TRP219      0.0590
    140  CG        18.0190  -11.2400   26.3440 C.ar  219  TRP219      0.0006
    141  CD1       18.8510  -10.1880   26.6230 C.ar  219  TRP219      0.0946
    142  CD2       17.8390  -11.9320   27.5940 C.ar  219  TRP219      0.0152
    143  NE1       19.1710  -10.1510   27.9690 N.ar  219  TRP219     -0.2442
    144  CE2       18.5750  -11.2190   28.5790 C.ar  219  TRP219      0.0810
    145  CE3       17.1360  -13.0700   27.9680 C.ar  219  TRP219      0.0012
    146  CZ2       18.6020  -11.6160   29.9110 C.ar  219  TRP219      0.0191
    147  CZ3       17.1630  -13.4650   29.2860 C.ar  219  TRP219      0.0001
    148  CH2       17.8830  -12.7500   30.2560 C.ar  219  TRP219      0.0015
    149  N         14.8400  -12.7510   25.4750 N.am  220  GLY220     -0.1940
    150  CA        13.8500  -13.4650   26.3040 C.3   220  GLY220      0.2014
    151  C         13.8730  -14.9440   25.8770 C.2   220  GLY220      0.2639
    152  O         14.1920  -15.2740   24.7150 O.2   220  GLY220     -0.2714
    153  N         13.5090  -15.7580   26.8310 N.am  221  GLU221     -0.1963
    154  CA        13.4300  -17.2360   26.6230 C.3   221  GLU221      0.1733
    155  C         12.0130  -17.5950   26.2450 C.2   221  GLU221      0.2617
    156  O         11.0960  -17.7270   27.0650 O.2   221  GLU221     -0.2715
    157  CB        13.8820  -17.9010   27.9400 C.3   221  GLU221      0.0429
    158  CG        15.3170  -17.4620   28.3300 C.3   221  GLU221      0.1163
    159  CD        15.8460  -17.9110   29.6580 C.2   221  GLU221      0.3649
    160  OE1       15.0830  -17.6800   30.6250 O.co2 221  GLU221     -0.2457
    161  OE2       16.9540  -18.4390   29.7570 O.co2 221  GLU221     -0.2457
    162  N         11.8250  -17.6720   24.9270 N.am  222  GLY222     -0.1940
    163  CA        10.5130  -17.9020   24.3150 C.3   222  GLY222      0.2014
    164  C          9.7500  -16.5550   24.3330 C.2   222  GLY222      0.2639
    165  O         10.3630  -15.4830   24.4790 O.2   222  GLY222     -0.2714
    166  N          8.4480  -16.6670   24.1850 N.am  223  CYS223     -0.1967
    167  CA         7.5240  -15.5460   24.1720 C.3   223  CYS223      0.1712
    168  C          6.3100  -15.7920   25.0530 C.2   223  CYS223      0.2296
    169  O          5.7120  -16.8840   25.1000 O.2   223  CYS223     -0.2864
    170  CB         7.1180  -15.2340   22.7190 C.3   223  CYS223      0.0983
    171  SG         8.5630  -15.2100   21.6750 S.3   223  CYS223     -0.0798
    172  N          5.8430  -16.5320   27.8350 N.3   225  ARG225     -0.1245
    173  CA         5.9010  -17.7520   28.6830 C.3   225  ARG225      0.1563
    174  C          5.6870  -17.3030   30.1290 C.2   225  ARG225      0.2260
    175  O          6.2830  -16.2930   30.5360 O.2   225  ARG225     -0.2867
    176  CB         7.2220  -18.4850   28.5620 C.3   225  ARG225      0.0307
    177  CG         7.5110  -19.1530   27.2300 C.3   225  ARG225      0.0489
    178  CD         8.3580  -20.3750   27.3990 C.3   225  ARG225      0.2205
    179  NE         8.9790  -20.7770   26.1320 N.pl3 225  ARG225     -0.0865
    180  CZ        10.1610  -21.4110   26.1170 C.cat 225  ARG225      0.5346
    181  NH1       10.7540  -21.6850   27.2830 N.pl3 225  ARG225      0.1354
    182  NH2       10.7490  -21.7630   24.9780 N.pl3 225  ARG225      0.1354
@<TRIPOS>BOND
     1    26    25    2
     2    25    24    1
     3    24    27    1
     4    24    23    1
     5    27    28    1
     6   115   114    2
     7   113   114    1
     8   113   112    1
     9    14    13    2
    10   110   109   ar
    11    11    12    1
    12   112   105   am
    13   106   105    2
    14    13    12    1
    15    28    30   ar
    16    28    29   ar
    17    33    30   ar
    18    33    35   ar
    19     4     3    2
    20   105   104    1
    21    30    32   ar
    22   109   111   ar
    23   109   108    1
    24    12    15    1
    25   107   104    1
    26   107   108    1
    27    15    16    1
    28    29    31   ar
    29     3     2    1
    30    35    36   ar
    31   119   118    2
    32   104   103    1
    33    32    31   ar
    34    32    34   ar
    35    18    16   ar
    36    18    20   ar
    37    16    17   ar
    38    36    34   ar
    39   118   117    1
    40     2     1    1
    41     2     5    1
    42   116   117    1
    43   103    99   am
    44     8    10   ar
    45     8     6   ar
    46   120   117    1
    47   120   121    1
    48   100    99    2
    49    10     9   ar
    50    20    21   ar
    51    99    98    1
    52    17    19   ar
    53     5     6    1
    54     6     7   ar
    55    48    50   ar
    56    48    46   ar
    57    50    49   ar
    58   101   102    1
    59   101    98    1
    60    46    45   ar
    61    46    44   ar
    62    45    43   ar
    63   102   171    1
    64     9     7   ar
    65    21    19   ar
    66    21    22    1
    67    49    47   ar
    68    98    97    1
    69    43    42   ar
    70    44    47   ar
    71    44    42   ar
    72    97    94   am
    73    42    41    1
    74    41    38    1
    75   125   124    2
    76    94    93    1
    77    94    95    2
    78   171   170    1
    79   126   127    1
    80   126   128    1
    81   126   123    1
    82    93    96    1
    83    93    92    1
    84    75    73    1
    85    38    39    1
    86    38    37    1
    87   132   131    2
    88    40    39    2
    89   124   123    1
    90   124   129   am
    91   122   123    1
    92    87    86    2
    93   170   167    1
    94    74    73    1
    95    73    72    1
    96    92    86   am
    97   131   130    1
    98   131   135   am
    99   130   129    1
   100   130   133    1
   101    86    85    1
   102   134   133    1
   103   167   166    1
   104   167   168    1
   105   166   164   am
   106   163   164    1
   107   163   162    1
   108   164   165    2
   109    72    69    1
   110   135   136    1
   111   136   139    1
   112   136   137    1
   113   152   151    2
   114   162   155   am
   115   182   180    1
   116    85    84    1
   117    85    88    1
   118   139   140    1
   119   168   169    2
   120    69    68    1
   121    69    70    1
   122   149   137   am
   123   149   150    1
   124    88    89    1
   125   137   138    2
   126    89    90   ar
   127    89    91   ar
   128    71    70    2
   129    68    62   am
   130   151   150    1
   131   151   153   am
   132    51    52    1
   133   180   179    2
   134   180   181    1
   135   179   178    1
   136   155   154    1
   137   155   156    2
   138   140   141   ar
   139   140   142   ar
   140   141   143   ar
   141   154   153    1
   142   154   157    1
   143    62    63    2
   144    62    61    1
   145   177   178    1
   146   177   176    1
   147    52    53    1
   148    52    55    1
   149    53    60   am
   150    53    54    2
   151    60    61    1
   152   142   145   ar
   153   142   144   ar
   154    61    64    1
   155   172   173    1
   156   157   158    1
   157   145   147   ar
   158   143   144   ar
   159   158   159    1
   160    55    56    1
   161   176   173    1
   162   144   146   ar
   163   173   174    1
   164    83    81    1
   165    66    65    2
   166   147   148   ar
   167    64    65    1
   168   159   161   ar
   169   159   160   ar
   170    56    57    1
   171    65    67   am
   172   146   148   ar
   173   174   175    2
   174    81    80    1
   175    82    80    1
   176    58    57   ar
   177    57    59   ar
   178    80    77    1
   179    77    76    1
   180    77    78    1
   181    78    79    2
