@<TRIPOS>MOLECULE
tmp/1lhtA00.pdb
 218 209 0 0 0
SMALL
GASTEIGER

@<TRIPOS>ATOM
      1  N          2.0160    2.3370   12.2970 N.3    32  LEU32      -0.1245
      2  CA         2.4390    1.0030   12.5910 C.3    32  LEU32       0.1561
      3  C          1.2390    0.2620   13.2280 C.2    32  LEU32       0.2260
      4  O          0.8120   -0.7940   12.7580 O.2    32  LEU32      -0.2867
      5  CB         3.7090    0.9840   13.3750 C.3    32  LEU32       0.0270
      6  CG         4.2600   -0.3960   13.8410 C.3    32  LEU32       0.0019
      7  CD1        4.6690   -1.2880   12.6350 C.3    32  LEU32       0.0001
      8  CD2        5.4690   -0.2310   14.7520 C.3    32  LEU32       0.0001
      9  N          1.1650   -5.3360   16.2490 N.3    39  THR39      -0.1218
     10  CA         2.4340   -4.9120   16.7840 C.3    39  THR39       0.1862
     11  C          2.2870   -4.2250   18.1160 C.2    39  THR39       0.2287
     12  O          3.2160   -4.1810   18.9840 O.2    39  THR39      -0.2866
     13  CB         3.1790   -3.9450   15.7850 C.3    39  THR39       0.1770
     14  OG1        2.2360   -2.8800   15.4580 O.3    39  THR39      -0.2211
     15  CG2        3.4970   -4.7540   14.5430 C.3    39  THR39       0.0375
     16  N          3.1680   -5.7940   21.5760 N.3    42  ARG42      -0.1231
     17  CA         4.5610   -5.9180   22.0380 C.3    42  ARG42       0.1694
     18  C          4.7890   -4.7540   22.9040 C.2    42  ARG42       0.2592
     19  O          5.7910   -4.7410   23.6120 O.2    42  ARG42      -0.2718
     20  CB         5.4830   -5.7000   20.8850 C.3    42  ARG42       0.0321
     21  CG         5.4300   -6.8920   19.8960 C.3    42  ARG42       0.0489
     22  CD         6.2100   -8.1030   20.6340 C.3    42  ARG42       0.2205
     23  NE         5.2790   -9.0510   20.7230 N.pl3  42  ARG42      -0.0865
     24  CZ         5.5790  -10.2890   20.1640 C.cat  42  ARG42       0.5346
     25  NH1        6.7550  -10.6800   19.5440 N.pl3  42  ARG42       0.1354
     26  NH2        4.5730  -11.3630   20.2020 N.pl3  42  ARG42       0.1354
     27  N          3.9460   -3.7370   22.9700 N.am   43  PHE43      -0.1962
     28  CA         4.2470   -2.6120   23.8250 C.3    43  PHE43       0.1771
     29  C          3.4060   -2.5110   25.0410 C.2    43  PHE43       0.2619
     30  O          2.3390   -1.8530   24.9930 O.2    43  PHE43      -0.2715
     31  CB         3.9880   -1.2620   23.0110 C.3    43  PHE43       0.0574
     32  CG         5.0330   -1.0180   21.9050 C.ar   43  PHE43      -0.0200
     33  CD1        4.8910   -1.6030   20.6410 C.ar   43  PHE43      -0.0042
     34  CD2        6.1380   -0.2230   22.1610 C.ar   43  PHE43      -0.0042
     35  CE1        5.8390   -1.4090   19.5750 C.ar   43  PHE43      -0.0003
     36  CE2        7.0600    0.0130   21.1110 C.ar   43  PHE43      -0.0003
     37  CZ         6.9220   -0.6110   19.8490 C.ar   43  PHE43      -0.0000
     38  N          3.8860   -3.1200   26.1800 N.am   44  ALA44      -0.1963
     39  CA         3.1520   -3.0640   27.4440 C.3    44  ALA44       0.1728
     40  C          2.7150   -1.6400   27.8150 C.2    44  ALA44       0.2616
     41  O          1.5970   -1.3710   28.2890 O.2    44  ALA44      -0.2715
     42  CB         3.8170   -3.7440   28.5930 C.3    44  ALA44       0.0334
     43  N          3.5730   -0.6860   27.5610 N.am   45  LYS45      -0.1977
     44  CA         3.2610    0.7450   27.9700 C.3    45  LYS45       0.1596
     45  C          2.2410    1.3680   27.1650 C.2    45  LYS45       0.2287
     46  O          1.6970    2.4030   27.5400 O.2    45  LYS45      -0.2864
     47  CB         4.6090    1.6610   28.0470 C.3    45  LYS45       0.0298
     48  CG         5.3880    1.7560   26.7400 C.3    45  LYS45       0.0038
     49  CD         6.7220    2.3920   26.9780 C.3    45  LYS45       0.0206
     50  CE         7.3940    2.7190   25.6560 C.3    45  LYS45       0.1093
     51  NZ         8.7260    3.3560   25.8100 N.3    45  LYS45      -0.1314
     52  N          8.4520    8.2350   22.2900 N.3    64  HIS64      -0.1241
     53  CA         8.9840    6.9690   21.8870 C.3    64  HIS64       0.1621
     54  C          9.2780    7.0060   20.4540 C.2    64  HIS64       0.2264
     55  O         10.3350    6.5720   19.9900 O.2    64  HIS64      -0.2867
     56  CB         8.1030    5.8450   22.2950 C.3    64  HIS64       0.0745
     57  CG         8.6320    4.5260   21.7680 C.ar   64  HIS64       0.0817
     58  ND1        9.6120    3.8490   22.3900 N.ar   64  HIS64      -0.2268
     59  CD2        8.2720    3.8850   20.5770 C.ar   64  HIS64       0.1154
     60  CE1        9.9110    2.7350   21.6090 C.ar   64  HIS64       0.1986
     61  NE2        9.0980    2.7660   20.5670 N.ar   64  HIS64      -0.2212
     62  N         12.5970    8.7780   19.8740 N.3    67  THR67      -0.1203
     63  CA        13.6480    7.8700   20.2390 C.3    67  THR67       0.1994
     64  C         13.9970    6.8540   19.1940 C.2    67  THR67       0.2617
     65  O         15.2140    6.5800   18.9200 O.2    67  THR67      -0.2717
     66  CB        13.2210    7.1230   21.5480 C.3    67  THR67       0.1784
     67  OG1       13.5220    8.0300   22.5990 O.3    67  THR67      -0.2211
     68  CG2       13.9870    5.8770   21.7880 C.3    67  THR67       0.0376
     69  N         12.9780    6.3700   18.5420 N.am   68  VAL68      -0.1979
     70  CA        13.1340    5.3890   17.4760 C.3    68  VAL68       0.1595
     71  C         13.8890    5.9540   16.3220 C.2    68  VAL68       0.2287
     72  O         14.8840    5.3550   15.8070 O.2    68  VAL68      -0.2864
     73  CB        11.7430    4.8010   17.0350 C.3    68  VAL68       0.0276
     74  CG1       11.9700    3.8190   15.9480 C.3    68  VAL68       0.0022
     75  CG2       11.1820    3.8920   18.1710 C.3    68  VAL68       0.0022
     76  N         17.5400    6.7850   16.9600 N.3    71  ALA71      -0.1231
     77  CA        18.4470    5.6530   16.8400 C.3    71  ALA71       0.1694
     78  C         18.7040    5.3230   15.4110 C.2    71  ALA71       0.2591
     79  O         19.8580    5.0850   15.0070 O.2    71  ALA71      -0.2718
     80  CB        17.9720    4.4590   17.7290 C.3    71  ALA71       0.0304
     81  N         17.6300    5.3200   14.6160 N.am   72  LEU72      -0.1980
     82  CA        17.7820    5.0040   13.2310 C.3    72  LEU72       0.1596
     83  C         18.7020    5.9730   12.4970 C.2    72  LEU72       0.2287
     84  O         19.5430    5.6120   11.6710 O.2    72  LEU72      -0.2864
     85  CB        16.3640    4.9070   12.5780 C.3    72  LEU72       0.0297
     86  CG        16.4020    4.4640   11.1070 C.3    72  LEU72       0.0022
     87  CD1       16.9380    2.9930   10.9860 C.3    72  LEU72       0.0001
     88  CD2       14.9900    4.5730   10.4900 C.3    72  LEU72       0.0001
     89  N         21.2380    7.6480   13.6740 N.3    74  ARG74      -0.1245
     90  CA        22.7010    7.3860   13.9830 C.3    74  ARG74       0.1563
     91  C         23.2270    6.2220   13.2220 C.2    74  ARG74       0.2260
     92  O         24.3690    6.2160   12.7530 O.2    74  ARG74      -0.2867
     93  CB        22.7060    7.0120   15.4640 C.3    74  ARG74       0.0307
     94  CG        22.4050    8.2340   16.3520 C.3    74  ARG74       0.0489
     95  CD        22.6720    8.1690   17.8550 C.3    74  ARG74       0.2205
     96  NE        21.7130    7.3390   18.5780 N.pl3  74  ARG74      -0.0865
     97  CZ        21.9150    6.8830   19.8430 C.cat  74  ARG74       0.5346
     98  NH1       23.0750    7.1560   20.5000 N.pl3  74  ARG74       0.1354
     99  NH2       20.9510    6.1400   20.4370 N.pl3  74  ARG74       0.1354
    100  N         23.7150   -2.9890   20.2210 N.3    88  PRO88      -0.2102
    101  CA        22.9120   -2.8730   21.3510 C.3    88  PRO88       0.1504
    102  C         21.4230   -2.8300   21.0430 C.2    88  PRO88       0.2575
    103  O         20.6010   -3.2330   21.9590 O.2    88  PRO88      -0.2718
    104  CB        23.2460   -1.4400   21.9880 C.3    88  PRO88       0.0282
    105  CG        24.6170   -1.1850   21.2980 C.3    88  PRO88       0.0208
    106  CD        24.6320   -1.8700   20.0280 C.3    88  PRO88       0.0893
    107  N         21.0580   -2.4750   19.7960 N.am   89  LEU89      -0.1980
    108  CA        19.6600   -2.4570   19.3930 C.3    89  LEU89       0.1596
    109  C         19.1780   -3.8830   19.1460 C.2    89  LEU89       0.2287
    110  O         18.0370   -4.3330   19.4980 O.2    89  LEU89      -0.2864
    111  CB        19.5740   -1.6840   18.0670 C.3    89  LEU89       0.0297
    112  CG        18.1280   -1.0860   17.8560 C.3    89  LEU89       0.0022
    113  CD1       17.9180    0.0640   18.6420 C.3    89  LEU89       0.0001
    114  CD2       18.1260   -0.6650   16.3890 C.3    89  LEU89       0.0001
    115  N         18.7370   -5.5770   22.5430 N.3    92  SER92      -0.1202
    116  CA        17.5180   -5.3880   23.2870 C.3    92  SER92       0.2020
    117  C         16.3160   -5.8840   22.6260 C.2    92  SER92       0.2615
    118  O         15.3620   -6.4300   23.2360 O.2    92  SER92      -0.2717
    119  CB        17.3360   -3.8750   23.6180 C.3    92  SER92       0.2103
    120  OG        17.2450   -3.2280   22.3520 O.3    92  SER92      -0.2182
    121  N         16.2910   -5.7920   21.2950 N.am   93  HIS93      -0.2028
    122  CA        15.1510   -6.2840   20.5120 C.3    93  HIS93       0.1342
    123  C         15.0750   -7.8480   20.4590 C.3    93  HIS93       0.2040
    124  O         13.9500   -8.4620   20.3320 O.3    93  HIS93      -0.2185
    125  CB        15.1280   -5.5840   19.0790 C.3    93  HIS93       0.0718
    126  CG        14.7290   -4.1690   19.2850 C.ar   93  HIS93       0.0817
    127  ND1       15.4380   -3.2180   20.0020 N.ar   93  HIS93      -0.2268
    128  CD2       13.5270   -3.5050   18.8580 C.ar   93  HIS93       0.1154
    129  CE1       14.6470   -2.0540   20.0660 C.ar   93  HIS93       0.1986
    130  NE2       13.5040   -2.2430   19.4110 N.ar   93  HIS93      -0.2212
    131  N         15.0780   -8.6260   25.0990 N.3    96  LYS96      -0.1231
    132  CA        14.0190   -8.0720   25.9580 C.3    96  LYS96       0.1693
    133  C         12.7160   -7.9200   25.3290 C.2    96  LYS96       0.2592
    134  O         11.6930   -8.4200   25.7980 O.2    96  LYS96      -0.2718
    135  CB        14.3800   -6.7190   26.5210 C.3    96  LYS96       0.0285
    136  CG        15.4280   -6.8700   27.6320 C.3    96  LYS96       0.0035
    137  CD        15.8460   -5.5240   28.2760 C.3    96  LYS96       0.0206
    138  CE        15.9210   -4.3520   27.2340 C.3    96  LYS96       0.1093
    139  NZ        16.2870   -3.0110   27.8520 N.3    96  LYS96      -0.1314
    140  N         12.6380   -7.2500   24.2100 N.am   97  HIS97      -0.1976
    141  CA        11.3660   -7.0310   23.5830 C.3    97  HIS97       0.1656
    142  C         10.9210   -8.2620   22.6810 C.2    97  HIS97       0.2291
    143  O          9.6750   -8.4350   22.5160 O.2    97  HIS97      -0.2864
    144  CB        11.4220   -5.7370   22.7700 C.3    97  HIS97       0.0771
    145  CG        12.1650   -4.6660   23.4580 C.ar   97  HIS97       0.0820
    146  ND1       11.8460   -4.1960   24.7450 N.ar   97  HIS97      -0.2267
    147  CD2       13.2290   -3.9280   22.9710 C.ar   97  HIS97       0.1154
    148  CE1       12.7320   -3.1480   25.0490 C.ar   97  HIS97       0.1986
    149  NE2       13.5370   -2.9890   24.0010 N.ar   97  HIS97      -0.2212
    150  N         11.2960   -8.9780   19.2170 N.3    99  ILE99      -0.1245
    151  CA        10.5900   -8.6460   18.0310 C.3    99  ILE99       0.1561
    152  C         10.9920   -9.3310   16.7800 C.2    99  ILE99       0.2260
    153  O         12.1470   -9.1380   16.2680 O.2    99  ILE99      -0.2867
    154  CB        10.9010   -7.1030   17.8360 C.3    99  ILE99       0.0252
    155  CG1       10.2420   -6.3830   19.1080 C.3    99  ILE99       0.0019
    156  CG2       10.4340   -6.5210   16.4360 C.3    99  ILE99       0.0019
    157  CD1       11.3040   -6.0650   19.9470 C.3    99  ILE99       0.0001
    158  N          8.0590   -7.9780   11.8970 N.3   103  TYR103     -0.1227
    159  CA         7.6840   -6.6760   12.4700 C.3   103  TYR103      0.1736
    160  C          8.6760   -5.6220   12.1040 C.2   103  TYR103      0.2595
    161  O          8.2920   -4.4550   11.9600 O.2   103  TYR103     -0.2718
    162  CB         7.5670   -6.6880   13.9810 C.3   103  TYR103      0.0548
    163  CG         6.3700   -7.4640   14.4780 C.ar  103  TYR103     -0.0200
    164  CD1        5.5360   -8.1160   13.5430 C.ar  103  TYR103     -0.0009
    165  CD2        6.1400   -7.5100   15.8570 C.ar  103  TYR103     -0.0009
    166  CE1        4.4500   -8.8520   14.0110 C.ar  103  TYR103      0.0417
    167  CE2        5.0450   -8.2480   16.3390 C.ar  103  TYR103      0.0417
    168  CZ         4.2370   -8.8860   15.3840 C.ar  103  TYR103      0.1957
    169  OH         3.1190   -9.6260   15.8410 O.3   103  TYR103     -0.2866
    170  N          9.9620   -5.9920   11.9250 N.am  104  LEU104     -0.1980
    171  CA        10.9780   -5.0290   11.4940 C.3   104  LEU104      0.1596
    172  C         10.6760   -4.6150   10.0750 C.2   104  LEU104      0.2287
    173  O         10.8020   -3.4140    9.7020 O.2   104  LEU104     -0.2864
    174  CB        12.4460   -5.5780   11.5150 C.3   104  LEU104      0.0297
    175  CG        12.9870   -5.9010   12.9000 C.3   104  LEU104      0.0022
    176  CD1       14.4900   -6.3960   12.8640 C.3   104  LEU104      0.0001
    177  CD2       12.8940   -4.7440   13.9050 C.3   104  LEU104      0.0001
    178  N          7.7680   -1.8940   10.0940 N.3   107  ILE107     -0.1231
    179  CA         8.1430   -0.5210   10.4250 C.3   107  ILE107      0.1692
    180  C          8.9210    0.1470    9.3360 C.2   107  ILE107      0.2592
    181  O          8.7440    1.2680    9.0810 O.2   107  ILE107     -0.2718
    182  CB         8.6710   -0.4080   11.8520 C.3   107  ILE107      0.0266
    183  CG1        8.5810    1.0270   12.3430 C.3   107  ILE107      0.0019
    184  CG2       10.1060   -0.9150   11.9210 C.3   107  ILE107      0.0020
    185  CD1        8.7860    1.2580   13.8740 C.3   107  ILE107      0.0001
    186  N          9.7740   -0.5930    8.6440 N.am  108  CYS108     -0.1970
    187  CA        10.5650   -0.1070    7.5420 C.3   108  CYS108      0.1712
    188  C          9.7350    0.4410    6.4720 C.2   108  CYS108      0.2296
    189  O         10.0020    1.5040    5.8220 O.2   108  CYS108     -0.2864
    190  CB        11.6250   -1.1010    6.9820 C.3   108  CYS108      0.0983
    191  SG        12.9610   -1.3930    8.2960 S.3   108  CYS108     -0.0798
    192  N          8.1430    3.7260    7.5070 N.3   111  ILE111     -0.1245
    193  CA         9.1220    4.8960    7.5340 C.3   111  ILE111      0.1561
    194  C          9.2240    5.4640    6.1030 C.2   111  ILE111      0.2260
    195  O          9.1350    6.6840    5.8240 O.2   111  ILE111     -0.2867
    196  CB        10.5000    4.4700    8.0380 C.3   111  ILE111      0.0252
    197  CG1       10.4330    4.2340    9.5900 C.3   111  ILE111      0.0019
    198  CG2       11.6130    5.4340    7.6090 C.3   111  ILE111      0.0019
    199  CD1       11.4660    3.3360   10.1510 C.3   111  ILE111      0.0001
    200  N         19.7780   -2.6920    7.0720 N.3   138  PHE138     -0.1241
    201  CA        19.5970   -2.6110    8.5620 C.3   138  PHE138      0.1605
    202  C         18.7810   -3.9170    9.0800 C.2   138  PHE138      0.2264
    203  O         19.1190   -4.5520   10.0890 O.2   138  PHE138     -0.2867
    204  CB        18.7470   -1.3930    8.9070 C.3   138  PHE138      0.0534
    205  CG        18.0250   -1.4430   10.1750 C.ar  138  PHE138     -0.0203
    206  CD1       18.6620   -1.1980   11.3450 C.ar  138  PHE138     -0.0042
    207  CD2       16.6580   -1.6100   10.2690 C.ar  138  PHE138     -0.0042
    208  CE1       17.9660   -1.2300   12.5700 C.ar  138  PHE138     -0.0003
    209  CE2       15.9560   -1.6650   11.4420 C.ar  138  PHE138     -0.0003
    210  CZ        16.6140   -1.4260   12.6070 C.ar  138  PHE138     -0.0000
    211  N         20.3170   -6.7780   11.4870 N.3   142  MET142     -0.1245
    212  CA        19.6390   -7.0000   12.8030 C.3   142  MET142      0.1570
    213  C         19.3230   -8.6350   12.9280 C.2   142  MET142      0.2261
    214  O         19.6110   -9.2240   13.9310 O.2   142  MET142     -0.2867
    215  CB        18.2250   -6.3390   12.7910 C.3   142  MET142      0.0387
    216  CG        18.3530   -4.8220   13.0920 C.3   142  MET142      0.0595
    217  SD        18.6650   -4.4980   14.8770 S.3   142  MET142     -0.1393
    218  CE        16.9850   -4.7200   15.5250 C.3   142  MET142      0.0692
@<TRIPOS>BOND
     1   189   188    2
     2   195   194    2
     3   194   193    1
     4   188   187    1
     5   190   187    1
     6   190   191    1
     7   200   201    1
     8   192   193    1
     9   193   196    1
    10   187   186    1
    11   198   196    1
    12   196   197    1
    13   201   204    1
    14   201   202    1
    15   186   180   am
    16   204   205    1
    17   202   203    2
    18   181   180    2
    19   180   179    1
    20   197   199    1
    21   173   172    2
    22   172   171    1
    23   178   179    1
    24   205   207   ar
    25   205   206   ar
    26   207   209   ar
    27   179   182    1
    28    88    86    1
    29    87    86    1
    30    86    85    1
    31   206   208   ar
    32   209   210   ar
    33   211   212    1
    34   171   174    1
    35   171   170    1
    36   174   175    1
    37    84    83    2
    38   182   184    1
    39   182   183    1
    40   158   159    1
    41   170   160   am
    42   161   160    2
    43   160   159    1
    44     1     2    1
    45   183   185    1
    46   159   162    1
    47    83    82    1
    48   208   210   ar
    49    85    82    1
    50     2     3    1
    51     2     5    1
    52     7     6    1
    53    92    91    2
    54     4     3    2
    55   215   212    1
    56   215   216    1
    57   212   213    1
    58   176   175    1
    59   175   177    1
    60   213   214    2
    61   216   217    1
    62    91    90    1
    63    82    81    1
    64     5     6    1
    65   164   166   ar
    66   164   163   ar
    67    89    90    1
    68     6     8    1
    69   162   163    1
    70    90    93    1
    71   166   168   ar
    72   163   165   ar
    73    15    13    1
    74    81    78   am
    75   217   218    1
    76    79    78    2
    77   168   169    1
    78   168   167   ar
    79    78    77    1
    80    14    13    1
    81    93    94    1
    82    13    10    1
    83    72    71    2
    84   165   167   ar
    85    74    73    1
    86     9    10    1
    87   153   152    2
    88    71    70    1
    89    94    95    1
    90   114   112    1
    91   156   154    1
    92   152   151    1
    93    10    11    1
    94    77    76    1
    95    77    80    1
    96    73    70    1
    97    73    75    1
    98    70    69    1
    99   154   151    1
   100   154   155    1
   101    95    96    1
   102   112   111    1
   103   112   113    1
   104   151   150    1
   105   111   108    1
   106    11    12    2
   107    69    64   am
   108    96    97    2
   109   128   126   ar
   110   128   130   ar
   111    65    64    2
   112   125   126    1
   113   125   122    1
   114   155   157    1
   115   109   108    1
   116   109   110    2
   117    64    63    1
   118   126   127   ar
   119   108   107    1
   120   130   129   ar
   121    25    24    1
   122    35    37   ar
   123    35    33   ar
   124   107   102   am
   125    97    99    1
   126    97    98    1
   127    37    36   ar
   128    62    63    1
   129    21    22    1
   130    21    20    1
   131    55    54    2
   132   127   129   ar
   133   106   100    1
   134   106   105    1
   135    24    26    1
   136    24    23    2
   137   100   101    1
   138    63    66    1
   139   124   123    1
   140    54    53    1
   141   123   122    1
   142   122   121    1
   143    61    59   ar
   144    61    60   ar
   145    59    57   ar
   146    22    23    1
   147    33    32   ar
   148    20    17    1
   149   102   101    1
   150   102   103    2
   151    36    34   ar
   152   121   117   am
   153   105   104    1
   154   101   104    1
   155    66    68    1
   156    66    67    1
   157    16    17    1
   158    60    58   ar
   159    57    56    1
   160    57    58   ar
   161    53    52    1
   162    53    56    1
   163    32    34   ar
   164    32    31    1
   165    17    18    1
   166   120   119    1
   167   143   142    2
   168   115   116    1
   169   117   118    2
   170   117   116    1
   171   142   141    1
   172   144   145    1
   173   144   141    1
   174    18    27   am
   175    18    19    2
   176    27    28    1
   177   147   145   ar
   178   147   149   ar
   179    31    28    1
   180   116   119    1
   181   145   146   ar
   182   141   140    1
   183    28    29    1
   184   149   148   ar
   185   140   133   am
   186   146   148   ar
   187    30    29    2
   188    29    38   am
   189   131   132    1
   190   133   134    2
   191   133   132    1
   192    50    51    1
   193    50    49    1
   194   132   135    1
   195    38    39    1
   196   135   136    1
   197    48    49    1
   198    48    47    1
   199    45    46    2
   200    45    44    1
   201   138   139    1
   202   138   137    1
   203    39    40    1
   204    39    42    1
   205    43    40   am
   206    43    44    1
   207   136   137    1
   208    40    41    2
   209    44    47    1
