@<TRIPOS>MOLECULE
tmp/1lhvA00.pdb
 213 205 0 0 0
SMALL
GASTEIGER

@<TRIPOS>ATOM
      1  N         17.1890   16.9810   23.6910 N.3    22  LEU22      -0.1245
      2  CA        17.3500   15.5360   23.7440 C.3    22  LEU22       0.1561
      3  C         17.4020   14.8860   22.3650 C.2    22  LEU22       0.2260
      4  O         18.2980   14.0850   22.0800 O.2    22  LEU22      -0.2867
      5  CB        16.2210   14.9270   24.5600 C.3    22  LEU22       0.0270
      6  CG        16.6550   13.7390   25.4090 C.3    22  LEU22       0.0019
      7  CD1       17.9390   14.0800   26.1610 C.3    22  LEU22       0.0001
      8  CD2       15.5510   13.3980   26.3780 C.3    22  LEU22       0.0001
      9  N         26.2640   10.5820   23.9630 N.3    28  THR28      -0.1203
     10  CA        25.6660   10.3520   25.2770 C.3    28  THR28       0.1994
     11  C         26.6860   10.0750   26.3630 C.2    28  THR28       0.2619
     12  O         26.5820    9.0730   27.0780 O.2    28  THR28      -0.2717
     13  CB        24.6880    9.1600   25.2570 C.3    28  THR28       0.1784
     14  OG1       25.3660    7.9950   24.7560 O.3    28  THR28      -0.2211
     15  CG2       23.4860    9.4730   24.3860 C.3    28  THR28       0.0376
     16  N         27.6750   10.9500   26.4850 N.am   29  SER29      -0.1937
     17  CA        28.6900   10.7940   27.5130 C.3    29  SER29       0.2055
     18  C         29.2150   12.1670   27.9380 C.2    29  SER29       0.2643
     19  O         29.0330   13.1670   27.2250 O.2    29  SER29      -0.2714
     20  CB        29.8490    9.9410   26.9940 C.3    29  SER29       0.2130
     21  OG        30.6100   10.6520   26.0350 O.3    29  SER29      -0.2179
     22  N         29.8350   12.2230   29.1130 N.am   30  SER30      -0.1949
     23  CA        30.4250   13.4540   29.6160 C.3    30  SER30       0.1924
     24  C         31.7500   13.0900   30.2810 C.2    30  SER30       0.2314
     25  O         31.9040   11.9900   30.8250 O.2    30  SER30      -0.2863
     26  CB        29.5150   14.1460   30.6330 C.3    30  SER30       0.2116
     27  OG        28.2540   14.4960   30.0990 O.3    30  SER30      -0.2180
     28  N         27.9320   16.8050   39.7130 N.3    44  PHE44      -0.1241
     29  CA        26.9850   17.2890   38.7160 C.3    44  PHE44       0.1605
     30  C         25.6570   16.5500   38.8290 C.2    44  PHE44       0.2264
     31  O         25.5720   15.4360   39.3900 O.2    44  PHE44      -0.2867
     32  CB        27.5770   17.2680   37.2800 C.3    44  PHE44       0.0534
     33  CG        27.4920   15.9500   36.5790 C.ar   44  PHE44      -0.0203
     34  CD1       26.3160   15.5550   35.9490 C.ar   44  PHE44      -0.0042
     35  CD2       28.5990   15.1210   36.5120 C.ar   44  PHE44      -0.0042
     36  CE1       26.2350   14.3370   35.2530 C.ar   44  PHE44      -0.0003
     37  CE2       28.5490   13.9020   35.8270 C.ar   44  PHE44      -0.0003
     38  CZ        27.3570   13.5060   35.1910 C.ar   44  PHE44      -0.0000
     39  N         21.7190   15.9820   36.6820 N.3    46  GLY46      -0.1210
     40  CA        21.1070   15.9980   35.3670 C.3    46  GLY46       0.1956
     41  C         19.6790   15.5370   35.4770 C.2    46  GLY46       0.2612
     42  O         19.3710   14.7140   36.3580 O.2    46  GLY46      -0.2717
     43  N         18.8020   16.0800   34.6290 N.am   47  ASP47      -0.1959
     44  CA        17.3980   15.6820   34.6270 C.3    47  ASP47       0.1840
     45  C         16.6750   16.0150   33.3240 C.2    47  ASP47       0.2622
     46  O         17.2140   16.6970   32.4520 O.2    47  ASP47      -0.2715
     47  CB        16.6170   16.2810   35.8300 C.3    47  ASP47       0.1450
     48  CG        16.3110   17.7900   35.6900 C.2    47  ASP47       0.3671
     49  OD1       16.3100   18.3190   34.5600 O.co2  47  ASP47      -0.2456
     50  OD2       16.0460   18.4410   36.7380 O.co2  47  ASP47      -0.2456
     51  N         15.4730   15.4720   33.1700 N.am   48  THR48      -0.1951
     52  CA        14.6450   15.7660   32.0100 C.3    48  THR48       0.1897
     53  C         13.4050   16.2500   32.7100 C.2    48  THR48       0.2313
     54  O         12.5350   16.8650   32.1150 O.2    48  THR48      -0.2863
     55  CB        14.2270   14.5210   31.2080 C.3    48  THR48       0.1794
     56  OG1       13.3660   13.6970   32.0160 O.3    48  THR48      -0.2208
     57  CG2       15.4380   13.7470   30.7500 C.3    48  THR48       0.0378
     58  N         12.6540   12.1150   36.7550 N.3    53  ASP53      -0.1225
     59  CA        13.6230   11.6640   35.7720 C.3    53  ASP53       0.1805
     60  C         14.9180   12.4090   35.9970 C.2    53  ASP53       0.2598
     61  O         15.2340   13.3370   35.2490 O.2    53  ASP53      -0.2718
     62  CB        13.0960   11.9550   34.3800 C.3    53  ASP53       0.1424
     63  CG        13.3410   10.8160   33.4330 C.2    53  ASP53       0.3668
     64  OD1       14.5240   10.5350   33.1590 O.co2  53  ASP53      -0.2456
     65  OD2       12.3550   10.1900   32.9840 O.co2  53  ASP53      -0.2456
     66  N         15.6720   11.9990   37.0160 N.am   54  TRP54      -0.1962
     67  CA        16.9140   12.6970   37.3620 C.3    54  TRP54       0.1771
     68  C         18.1030   11.8000   37.7450 C.2    54  TRP54       0.2619
     69  O         17.9440   10.6010   38.0100 O.2    54  TRP54      -0.2715
     70  CB        16.6250   13.7130   38.4890 C.3    54  TRP54       0.0590
     71  CG        16.1520   13.0940   39.7850 C.ar   54  TRP54       0.0006
     72  CD1       14.8560   12.8480   40.1590 C.ar   54  TRP54       0.0946
     73  CD2       16.9680   12.6620   40.8860 C.ar   54  TRP54       0.0152
     74  NE1       14.8220   12.2970   41.4120 N.ar   54  TRP54      -0.2442
     75  CE2       16.0980   12.1720   41.8860 C.ar   54  TRP54       0.0810
     76  CE3       18.3530   12.6390   41.1230 C.ar   54  TRP54       0.0012
     77  CZ2       16.5650   11.6670   43.1130 C.ar   54  TRP54       0.0191
     78  CZ3       18.8190   12.1350   42.3420 C.ar   54  TRP54       0.0001
     79  CH2       17.9220   11.6600   43.3210 C.ar   54  TRP54       0.0015
     80  N         19.2890   12.4070   37.7810 N.am   55  PHE55      -0.1974
     81  CA        20.5430   11.7270   38.0800 C.3    55  PHE55       0.1639
     82  C         21.5160   12.6600   38.8130 C.2    55  PHE55       0.2290
     83  O         21.5280   13.8770   38.5730 O.2    55  PHE55      -0.2864
     84  CB        21.1570   11.2800   36.7460 C.3    55  PHE55       0.0560
     85  CG        22.5650   10.7580   36.8340 C.ar   55  PHE55      -0.0200
     86  CD1       22.8250    9.3830   36.6770 C.ar   55  PHE55      -0.0042
     87  CD2       23.6500   11.6350   36.9430 C.ar   55  PHE55      -0.0042
     88  CE1       24.1270    8.9030   36.6170 C.ar   55  PHE55      -0.0003
     89  CE2       24.9660   11.1560   36.8850 C.ar   55  PHE55      -0.0003
     90  CZ        25.2020    9.7870   36.7200 C.ar   55  PHE55      -0.0000
     91  N         19.9730    8.0160   41.2800 N.3    68  LEU68      -0.1245
     92  CA        19.2870    8.0250   40.0140 C.3    68  LEU68       0.1561
     93  C         17.8380    7.6910   40.2710 C.2    68  LEU68       0.2260
     94  O         17.5390    6.8410   41.1120 O.2    68  LEU68      -0.2867
     95  CB        20.0000    6.9510   39.1800 C.3    68  LEU68       0.0270
     96  CG        19.6900    6.2380   37.8810 C.3    68  LEU68       0.0019
     97  CD1       20.9990    5.6180   37.4170 C.3    68  LEU68       0.0001
     98  CD2       18.5930    5.1880   38.0550 C.3    68  LEU68       0.0001
     99  N         14.2330    7.2240   37.8390 N.3    70  ASN70      -0.1240
    100  CA        13.4710    7.2950   36.6010 C.3    70  ASN70       0.1653
    101  C         12.5000    6.1210   36.5120 C.2    70  ASN70       0.2266
    102  O         12.3950    5.3090   37.4400 O.2    70  ASN70      -0.2867
    103  CB        14.3880    7.3250   35.3660 C.3    70  ASN70       0.1155
    104  CG        15.2010    6.0600   35.1970 C.2    70  ASN70       0.2627
    105  OD1       14.7260    4.9550   35.4700 O.2    70  ASN70      -0.2716
    106  ND2       16.4290    6.2110   34.7100 N.am   70  ASN70      -0.0877
    107  N         12.5530    3.3140   35.0300 N.3    72  TRP72      -0.1241
    108  CA        13.1550    1.9940   35.1540 C.3    72  TRP72       0.1605
    109  C         13.9480    1.6740   36.4080 C.2    72  TRP72       0.2264
    110  O         14.0470    0.5130   36.8210 O.2    72  TRP72      -0.2867
    111  CB        14.0550    1.7600   33.9450 C.3    72  TRP72       0.0550
    112  CG        13.3420    1.9490   32.6460 C.ar   72  TRP72       0.0003
    113  CD1       12.5390    1.0440   32.0090 C.ar   72  TRP72       0.0946
    114  CD2       13.3430    3.1260   31.8310 C.ar   72  TRP72       0.0152
    115  NE1       12.0440    1.5840   30.8480 N.ar   72  TRP72      -0.2442
    116  CE2       12.5210    2.8620   30.7140 C.ar   72  TRP72       0.0810
    117  CE3       13.9600    4.3820   31.9360 C.ar   72  TRP72       0.0012
    118  CZ2       12.2980    3.8060   29.7050 C.ar   72  TRP72       0.0191
    119  CZ3       13.7380    5.3240   30.9320 C.ar   72  TRP72       0.0001
    120  CH2       12.9140    5.0280   29.8320 C.ar   72  TRP72       0.0015
    121  N         31.3840    9.6330   32.4500 N.3    93  VAL93      -0.1231
    122  CA        30.0760    9.0250   32.6860 C.3    93  VAL93       0.1692
    123  C         29.5010    8.8080   31.3020 C.2    93  VAL93       0.2592
    124  O         29.3980    9.7610   30.4990 O.2    93  VAL93      -0.2718
    125  CB        29.1530    9.9480   33.4880 C.3    93  VAL93       0.0266
    126  CG1       27.8350    9.2540   33.7710 C.3    93  VAL93       0.0020
    127  CG2       29.8300   10.3220   34.8050 C.3    93  VAL93       0.0020
    128  N         29.1430    7.5620   31.0080 N.am   94  LYS94      -0.1966
    129  CA        28.6340    7.2260   29.6930 C.3    94  LYS94       0.1728
    130  C         27.4110    6.3490   29.7040 C.2    94  LYS94       0.2616
    131  O         27.1730    5.5870   30.6450 O.2    94  LYS94      -0.2715
    132  CB        29.6860    6.4850   28.8760 C.3    94  LYS94       0.0311
    133  CG        31.0750    7.0230   29.0030 C.3    94  LYS94       0.0038
    134  CD        32.0570    6.1200   28.2860 C.3    94  LYS94       0.0206
    135  CE        33.4800    6.4350   28.7120 C.3    94  LYS94       0.1093
    136  NZ        33.9040    7.8350   28.3590 N.3    94  LYS94      -0.1314
    137  N         26.6600    6.4530   28.6170 N.am   95  MET95      -0.1977
    138  CA        25.4770    5.6460   28.4160 C.3    95  MET95       0.1605
    139  C         25.8910    4.5670   27.4380 C.2    95  MET95       0.2287
    140  O         26.2900    4.8760   26.3220 O.2    95  MET95      -0.2864
    141  CB        24.3650    6.4890   27.8150 C.3    95  MET95       0.0413
    142  CG        23.4410    7.0580   28.8490 C.3    95  MET95       0.0598
    143  SD        22.2170    5.8170   29.2620 S.3    95  MET95      -0.1393
    144  CE        20.8350    6.3910   28.2130 C.3    95  MET95       0.0692
    145  N         24.5770    2.7590   32.5390 N.3   100  VAL100     -0.1245
    146  CA        25.3460    3.9680   32.7700 C.3   100  VAL100      0.1561
    147  C         26.6560    3.4760   33.3430 C.2   100  VAL100      0.2260
    148  O         26.6650    2.7100   34.3110 O.2   100  VAL100     -0.2867
    149  CB        24.6610    4.8840   33.7830 C.3   100  VAL100      0.0252
    150  CG1       25.6010    6.0240   34.1740 C.3   100  VAL100      0.0019
    151  CG2       23.3810    5.4230   33.1890 C.3   100  VAL100      0.0019
    152  N         19.1060    0.7150   33.5950 N.3   115  VAL115     -0.1231
    153  CA        18.6120    1.9390   34.2250 C.3   115  VAL115      0.1692
    154  C         17.9860    2.9560   33.2640 C.2   115  VAL115      0.2592
    155  O         17.3820    3.9250   33.7010 O.2   115  VAL115     -0.2718
    156  CB        19.7360    2.6620   35.0320 C.3   115  VAL115      0.0266
    157  CG1       20.2290    1.7450   36.1470 C.3   115  VAL115      0.0020
    158  CG2       20.8860    3.0460   34.1110 C.3   115  VAL115      0.0020
    159  N         18.1110    2.7320   31.9660 N.am  116  SER116     -0.1952
    160  CA        17.5370    3.6760   31.0160 C.3   116  SER116      0.1924
    161  C         17.0580    3.0340   29.7250 C.2   116  SER116      0.2314
    162  O         17.7900    2.2800   29.0850 O.2   116  SER116     -0.2863
    163  CB        18.5610    4.7650   30.6930 C.3   116  SER116      0.2116
    164  OG        19.7910    4.1820   30.3020 O.3   116  SER116     -0.2180
    165  N         14.3980    3.8750   26.0660 N.3   118  PRO118     -0.2102
    166  CA        14.3870    4.8060   24.9310 C.3   118  PRO118      0.1504
    167  C         15.1990    6.0780   25.1680 C.2   118  PRO118      0.2575
    168  O         14.8930    6.8600   26.0700 O.2   118  PRO118     -0.2718
    169  CB        12.9000    5.0820   24.7460 C.3   118  PRO118      0.0282
    170  CG        12.3160    3.7320   24.9890 C.3   118  PRO118      0.0208
    171  CD        13.0730    3.2390   26.2170 C.3   118  PRO118      0.0893
    172  N         16.2330    6.2680   24.3490 N.am  119  LEU119     -0.1980
    173  CA        17.1230    7.4260   24.4470 C.3   119  LEU119      0.1596
    174  C         18.0290    7.2530   25.6620 C.2   119  LEU119      0.2287
    175  O         17.9930    6.2180   26.3320 O.2   119  LEU119     -0.2864
    176  CB        16.3140    8.7300   24.5710 C.3   119  LEU119      0.0297
    177  CG        17.0140   10.1030   24.5350 C.3   119  LEU119      0.0022
    178  CD1       17.9590   10.2630   25.7240 C.3   119  LEU119      0.0001
    179  CD2       17.7710   10.2570   23.2230 C.3   119  LEU119      0.0001
    180  N          9.8360   13.8980   26.8940 N.3   120  HIS120     -0.1241
    181  CA        11.1980   14.1620   27.3530 C.3   120  HIS120      0.1621
    182  C         11.9560   14.9050   26.2550 C.2   120  HIS120      0.2264
    183  O         12.8670   14.3650   25.6330 O.2   120  HIS120     -0.2867
    184  CB        11.9170   12.8450   27.6700 C.3   120  HIS120      0.0745
    185  CG        11.1130   11.9060   28.5120 C.ar  120  HIS120      0.0817
    186  ND1       10.0220   11.2190   28.0240 N.ar  120  HIS120     -0.2268
    187  CD2       11.2360   11.5450   29.8120 C.ar  120  HIS120      0.1154
    188  CE1        9.5090   10.4720   28.9850 C.ar  120  HIS120      0.1986
    189  NE2       10.2270   10.6510   30.0800 N.ar  120  HIS120     -0.2212
    190  N         16.9970   17.9920   28.3630 N.3   123  MET123     -0.1245
    191  CA        17.8380   17.5040   29.4510 C.3   123  MET123      0.1570
    192  C         18.6590   18.6830   29.9970 C.2   123  MET123      0.2261
    193  O         19.2380   19.4690   29.2300 O.2   123  MET123     -0.2867
    194  CB        18.8040   16.4190   28.9650 C.3   123  MET123      0.0387
    195  CG        19.6930   15.8540   30.0930 C.3   123  MET123      0.0595
    196  SD        20.7260   14.4800   29.5380 S.3   123  MET123     -0.1393
    197  CE        19.4660   13.2400   29.3320 C.3   123  MET123      0.0692
    198  N         21.7630   19.9470   32.7170 N.3   125  ILE125     -0.1245
    199  CA        22.9580   19.5200   33.4330 C.3   125  ILE125      0.1561
    200  C         23.3910   20.6690   34.3360 C.2   125  ILE125      0.2260
    201  O         23.6710   21.7700   33.8560 O.2   125  ILE125     -0.2867
    202  CB        24.1480   19.2020   32.4880 C.3   125  ILE125      0.0252
    203  CG1       23.8460   17.9970   31.5920 C.3   125  ILE125      0.0019
    204  CG2       25.4030   18.9040   33.3300 C.3   125  ILE125      0.0019
    205  CD1       23.5310   16.7190   32.3540 C.3   125  ILE125      0.0001
    206  N         27.9500   16.0200   27.3300 N.3   155  LEU155     -0.1245
    207  CA        27.0970   15.4500   26.2880 C.3   155  LEU155      0.1561
    208  C         27.4990   15.8830   24.8770 C.2   155  LEU155      0.2260
    209  O         28.6600   15.7550   24.4760 O.2   155  LEU155     -0.2867
    210  CB        25.6270   15.8100   26.5500 C.3   155  LEU155      0.0270
    211  CG        25.0210   15.1730   27.8060 C.3   155  LEU155      0.0019
    212  CD1       23.6880   15.8040   28.1650 C.3   155  LEU155      0.0001
    213  CD2       24.8730   13.6780   27.5640 C.3   155  LEU155      0.0001
@<TRIPOS>BOND
     1     4     3    2
     2     3     2    1
     3   179   177    1
     4     1     2    1
     5     2     5    1
     6     9    10    1
     7   172   173    1
     8   172   167   am
     9    15    13    1
    10   173   176    1
    11   173   174    1
    12   209   208    2
    13   177   176    1
    14   177   178    1
    15     5     6    1
    16   169   166    1
    17   169   170    1
    18    14    13    1
    19   208   207    1
    20   166   167    1
    21   166   165    1
    22   170   171    1
    23   167   168    2
    24    13    10    1
    25    10    11    1
    26     6     7    1
    27     6     8    1
    28   183   182    2
    29   174   175    2
    30    21    20    1
    31   165   171    1
    32   182   181    1
    33   207   210    1
    34   207   206    1
    35   140   139    2
    36    11    16   am
    37    11    12    2
    38    16    17    1
    39   210   211    1
    40   180   181    1
    41    20    17    1
    42    19    18    2
    43   181   184    1
    44   139   138    1
    45    17    18    1
    46   213   211    1
    47   184   185    1
    48   211   212    1
    49   141   138    1
    50   141   142    1
    51    18    22   am
    52   186   185   ar
    53   186   188   ar
    54   144   143    1
    55   134   135    1
    56   134   133    1
    57   136   135    1
    58   190   191    1
    59   138   137    1
    60   185   187   ar
    61   137   130   am
    62   142   143    1
    63   132   133    1
    64   132   129    1
    65   194   191    1
    66   194   195    1
    67   188   189   ar
    68   162   161    2
    69    22    23    1
    70   193   192    2
    71   197   196    1
    72   191   192    1
    73   196   195    1
    74    23    24    1
    75    23    26    1
    76   129   130    1
    77   129   128    1
    78   130   131    2
    79   118   120   ar
    80   118   116   ar
    81   161   160    1
    82   187   189   ar
    83   120   119   ar
    84    27    26    1
    85    24    25    2
    86   164   163    1
    87   124   123    2
    88   163   160    1
    89   116   115   ar
    90   116   114   ar
    91    57    55    1
    92   115   113   ar
    93   119   117   ar
    94   128   123   am
    95   160   159    1
    96    55    52    1
    97    55    56    1
    98   123   122    1
    99   203   205    1
   100   203   202    1
   101   114   117   ar
   102   114   112   ar
   103   159   154   am
   104   113   112   ar
   105    52    53    1
   106    52    51    1
   107    54    53    2
   108   121   122    1
   109    46    45    2
   110   202   204    1
   111   202   199    1
   112   145   146    1
   113   112   111    1
   114   122   125    1
   115   198   199    1
   116   146   147    1
   117   146   149    1
   118    65    63   ar
   119    64    63   ar
   120    51    45   am
   121   151   149    1
   122   154   155    2
   123   154   153    1
   124    45    44    1
   125   147   148    2
   126   199   200    1
   127    63    62    1
   128   125   126    1
   129   125   127    1
   130   152   153    1
   131   149   150    1
   132   201   200    2
   133   111   108    1
   134   158   156    1
   135   153   156    1
   136    62    59    1
   137    49    48   ar
   138    44    43    1
   139    44    47    1
   140    43    41   am
   141   106   104   am
   142   107   108    1
   143   156   157    1
   144   108   109    1
   145    38    36   ar
   146    38    37   ar
   147   104   103    1
   148   104   105    2
   149    61    60    2
   150    36    34   ar
   151   103   100    1
   152    40    41    1
   153    40    39    1
   154    41    42    2
   155    48    47    1
   156    48    50   ar
   157    59    60    1
   158    59    58    1
   159    37    35   ar
   160    34    33   ar
   161    60    66   am
   162   109   110    2
   163   101   100    1
   164   101   102    2
   165    35    33   ar
   166    33    32    1
   167   100    99    1
   168    88    86   ar
   169    88    90   ar
   170    86    85   ar
   171    90    89   ar
   172    84    85    1
   173    84    81    1
   174    85    87   ar
   175    89    87   ar
   176    66    67    1
   177    32    29    1
   178    67    68    1
   179    67    70    1
   180    97    96    1
   181    68    80   am
   182    68    69    2
   183    80    81    1
   184    96    98    1
   185    96    95    1
   186    81    82    1
   187    70    71    1
   188    83    82    2
   189    29    30    1
   190    29    28    1
   191    30    31    2
   192    95    92    1
   193    71    72   ar
   194    71    73   ar
   195    92    93    1
   196    92    91    1
   197    72    74   ar
   198    93    94    2
   199    73    76   ar
   200    73    75   ar
   201    76    78   ar
   202    74    75   ar
   203    75    77   ar
   204    78    79   ar
   205    77    79   ar
