@<TRIPOS>MOLECULE
tmp/1lhwA00.pdb
 189 182 0 0 0
SMALL
GASTEIGER

@<TRIPOS>ATOM
      1  N         26.1310   10.3140   24.2400 N.3    28  THR28      -0.1203
      2  CA        25.5660   10.2870   25.5790 C.3    28  THR28       0.1994
      3  C         26.6180   10.0600   26.6480 C.2    28  THR28       0.2619
      4  O         26.4650    9.1800   27.4990 O.2    28  THR28      -0.2717
      5  CB        24.4910    9.1940   25.7080 C.3    28  THR28       0.1784
      6  OG1       25.0610    7.9270   25.3540 O.3    28  THR28      -0.2211
      7  CG2       23.3190    9.4920   24.7850 C.3    28  THR28       0.0376
      8  N         27.6880   10.8420   26.5980 N.am   29  SER29      -0.1937
      9  CA        28.7510   10.7210   27.5930 C.3    29  SER29       0.2055
     10  C         29.3200   12.0820   27.9450 C.2    29  SER29       0.2643
     11  O         29.1840   13.0450   27.1770 O.2    29  SER29      -0.2714
     12  CB        29.8800    9.8380   27.0700 C.3    29  SER29       0.2130
     13  OG        30.4840   10.4380   25.9490 O.3    29  SER29      -0.2179
     14  N         29.9540   12.1520   29.1130 N.am   30  SER30      -0.1949
     15  CA        30.5920   13.3660   29.6050 C.3    30  SER30       0.1924
     16  C         31.8610   12.9670   30.3380 C.2    30  SER30       0.2314
     17  O         31.9660   11.8620   30.8910 O.2    30  SER30      -0.2863
     18  CB        29.6730   14.1340   30.5660 C.3    30  SER30       0.2116
     19  OG        28.4310   14.4380   29.9790 O.3    30  SER30      -0.2180
     20  N         27.8150   16.8450   39.9870 N.3    44  PHE44      -0.1241
     21  CA        26.8010   17.3430   39.0490 C.3    44  PHE44       0.1605
     22  C         25.4560   16.6610   39.2360 C.2    44  PHE44       0.2264
     23  O         25.3540   15.5520   39.7770 O.2    44  PHE44      -0.2867
     24  CB        27.2740   17.2860   37.5660 C.3    44  PHE44       0.0534
     25  CG        27.1860   15.9250   36.9180 C.ar   44  PHE44      -0.0203
     26  CD1       25.9850   15.4610   36.3890 C.ar   44  PHE44      -0.0042
     27  CD2       28.3240   15.1420   36.7740 C.ar   44  PHE44      -0.0042
     28  CE1       25.9190   14.2310   35.7080 C.ar   44  PHE44      -0.0003
     29  CE2       28.2750   13.9110   36.1000 C.ar   44  PHE44      -0.0003
     30  CZ        27.0760   13.4560   35.5640 C.ar   44  PHE44      -0.0000
     31  N         21.5680   16.1290   37.1380 N.3    46  GLY46      -0.1210
     32  CA        20.9630   16.2360   35.8210 C.3    46  GLY46       0.1956
     33  C         19.5430   15.7340   35.8720 C.2    46  GLY46       0.2612
     34  O         19.1980   14.8900   36.7110 O.2    46  GLY46      -0.2717
     35  N         18.6940   16.2500   34.9820 N.am   47  ASP47      -0.1959
     36  CA        17.3160   15.7900   34.9580 C.3    47  ASP47       0.1840
     37  C         16.6300   16.1070   33.6530 C.2    47  ASP47       0.2622
     38  O         17.2260   16.7120   32.7630 O.2    47  ASP47      -0.2715
     39  CB        16.4950   16.4000   36.1060 C.3    47  ASP47       0.1450
     40  CG        16.2300   17.9190   35.9420 C.2    47  ASP47       0.3671
     41  OD1       16.3870   18.4700   34.8280 O.co2  47  ASP47      -0.2456
     42  OD2       15.8460   18.5360   36.9540 O.co2  47  ASP47      -0.2456
     43  N         15.3990   15.6140   33.5380 N.am   48  THR48      -0.1951
     44  CA        14.5380   15.9040   32.3950 C.3    48  THR48       0.1897
     45  C         13.2560   16.2950   33.1020 C.2    48  THR48       0.2313
     46  O         12.3060   16.7760   32.4800 O.2    48  THR48      -0.2863
     47  CB        14.2350   14.6920   31.4960 C.3    48  THR48       0.1794
     48  OG1       13.4250   13.7560   32.2130 O.3    48  THR48      -0.2208
     49  CG2       15.5060   14.0290   31.0290 C.3    48  THR48       0.0378
     50  N         12.4580   12.3360   37.1020 N.3    53  ASP53      -0.1225
     51  CA        13.5090   11.8070   36.2400 C.3    53  ASP53       0.1805
     52  C         14.7840   12.5990   36.5000 C.2    53  ASP53       0.2598
     53  O         15.0980   13.5380   35.7440 O.2    53  ASP53      -0.2718
     54  CB        13.1490   11.9350   34.7620 C.3    53  ASP53       0.1424
     55  CG        14.2160   11.3460   33.8560 C.2    53  ASP53       0.3668
     56  OD1       14.1870   11.5990   32.6370 O.co2  53  ASP53      -0.2456
     57  OD2       15.0960   10.6240   34.3570 O.co2  53  ASP53      -0.2456
     58  N         15.5080   12.2360   37.5600 N.am   54  TRP54      -0.1962
     59  CA        16.7380   12.9500   37.9030 C.3    54  TRP54       0.1771
     60  C         17.9000   12.0080   38.2780 C.2    54  TRP54       0.2619
     61  O         17.6940   10.8120   38.5980 O.2    54  TRP54      -0.2715
     62  CB        16.4720   13.9580   39.0390 C.3    54  TRP54       0.0590
     63  CG        16.0080   13.3190   40.3200 C.ar   54  TRP54       0.0006
     64  CD1       14.7070   13.0920   40.7230 C.ar   54  TRP54       0.0946
     65  CD2       16.8500   12.8120   41.3660 C.ar   54  TRP54       0.0152
     66  NE1       14.7060   12.4710   41.9580 N.ar   54  TRP54      -0.2442
     67  CE2       16.0010   12.2920   42.3740 C.ar   54  TRP54       0.0810
     68  CE3       18.2420   12.7470   41.5470 C.ar   54  TRP54       0.0012
     69  CZ2       16.4960   11.7190   43.5480 C.ar   54  TRP54       0.0191
     70  CZ3       18.7410   12.1720   42.7180 C.ar   54  TRP54       0.0001
     71  CH2       17.8630   11.6670   43.7050 C.ar   54  TRP54       0.0015
     72  N         19.1080   12.5700   38.2150 N.am   55  PHE55      -0.1974
     73  CA        20.3720   11.8600   38.4520 C.3    55  PHE55       0.1639
     74  C         21.3760   12.7690   39.1700 C.2    55  PHE55       0.2290
     75  O         21.4210   13.9770   38.9210 O.2    55  PHE55      -0.2864
     76  CB        20.9320   11.4680   37.0800 C.3    55  PHE55       0.0560
     77  CG        22.3240   10.8530   37.0890 C.ar   55  PHE55      -0.0200
     78  CD1       22.4780    9.4800   36.9100 C.ar   55  PHE55      -0.0042
     79  CD2       23.4790   11.6470   37.2100 C.ar   55  PHE55      -0.0042
     80  CE1       23.7550    8.8810   36.8440 C.ar   55  PHE55      -0.0003
     81  CE2       24.7650   11.0630   37.1540 C.ar   55  PHE55      -0.0003
     82  CZ        24.9000    9.6710   36.9680 C.ar   55  PHE55      -0.0000
     83  N         19.8560    7.9700   41.5200 N.3    68  LEU68      -0.1245
     84  CA        19.0690    8.0230   40.2790 C.3    68  LEU68       0.1561
     85  C         17.6270    7.7550   40.5910 C.2    68  LEU68       0.2260
     86  O         17.3210    6.9000   41.4240 O.2    68  LEU68      -0.2867
     87  CB        19.5760    6.9310   39.2960 C.3    68  LEU68       0.0270
     88  CG        18.7270    6.6780   38.0410 C.3    68  LEU68       0.0019
     89  CD1       18.8570    7.9020   37.0950 C.3    68  LEU68       0.0001
     90  CD2       19.1930    5.3840   37.3130 C.3    68  LEU68       0.0001
     91  N         14.1600    7.4200   38.1520 N.3    70  ASN70      -0.1240
     92  CA        13.4630    7.5400   36.8680 C.3    70  ASN70       0.1653
     93  C         12.4290    6.4340   36.7720 C.2    70  ASN70       0.2266
     94  O         12.1710    5.7350   37.7530 O.2    70  ASN70      -0.2867
     95  CB        14.4410    7.5290   35.6600 C.3    70  ASN70       0.1155
     96  CG        15.1220    6.1980   35.4500 C.2    70  ASN70       0.2627
     97  OD1       14.6050    5.1590   35.8520 O.2    70  ASN70      -0.2716
     98  ND2       16.2690    6.2150   34.7610 N.am   70  ASN70      -0.0877
     99  N         31.2980    9.6370   32.6560 N.3    93  VAL93      -0.1231
    100  CA        29.9790    9.0870   32.9530 C.3    93  VAL93       0.1692
    101  C         29.2870    8.9370   31.6150 C.2    93  VAL93       0.2592
    102  O         29.1660    9.9050   30.8380 O.2    93  VAL93      -0.2718
    103  CB        29.1150   10.0160   33.7980 C.3    93  VAL93       0.0266
    104  CG1       27.8140    9.3260   34.1010 C.3    93  VAL93       0.0020
    105  CG2       29.8340   10.4110   35.0890 C.3    93  VAL93       0.0020
    106  N         28.8290    7.7320   31.3240 N.am   94  LYS94      -0.1966
    107  CA        28.1890    7.5540   30.0370 C.3    94  LYS94       0.1728
    108  C         27.0940    6.5210   30.0070 C.2    94  LYS94       0.2616
    109  O         26.9990    5.6670   30.8890 O.2    94  LYS94      -0.2715
    110  CB        29.2460    7.1870   29.0180 C.3    94  LYS94       0.0311
    111  CG        29.9130    5.8700   29.3100 C.3    94  LYS94       0.0038
    112  CD        31.1040    5.5990   28.3790 C.3    94  LYS94       0.0206
    113  CE        32.3170    6.4160   28.7920 C.3    94  LYS94       0.1093
    114  NZ        33.5240    6.1530   27.9380 N.3    94  LYS94      -0.1314
    115  N         26.2630    6.6190   28.9750 N.am   95  MET95      -0.1977
    116  CA        25.1920    5.6580   28.7570 C.3    95  MET95       0.1605
    117  C         25.7260    4.6470   27.7570 C.2    95  MET95       0.2287
    118  O         26.2510    5.0140   26.7050 O.2    95  MET95      -0.2864
    119  CB        23.9410    6.3410   28.1890 C.3    95  MET95       0.0413
    120  CG        23.1540    7.1820   29.1950 C.3    95  MET95       0.0598
    121  SD        22.6500    6.2610   30.6710 S.3    95  MET95      -0.1393
    122  CE        21.7110    4.8460   29.9600 C.3    95  MET95       0.0692
    123  N         24.3520    2.7880   32.8350 N.3   100  VAL100     -0.1245
    124  CA        25.1040    3.9990   33.1200 C.3   100  VAL100      0.1561
    125  C         26.4490    3.4890   33.6000 C.2   100  VAL100      0.2260
    126  O         26.5340    2.6460   34.5000 O.2   100  VAL100     -0.2867
    127  CB        24.4760    4.8560   34.1980 C.3   100  VAL100      0.0252
    128  CG1       25.4980    5.9410   34.6520 C.3   100  VAL100      0.0019
    129  CG2       23.2370    5.5140   33.6530 C.3   100  VAL100      0.0019
    130  N         18.8390    0.4970   33.7280 N.3   115  VAL115     -0.1231
    131  CA        18.3040    1.7030   34.3320 C.3   115  VAL115      0.1692
    132  C         17.7420    2.6840   33.3110 C.2   115  VAL115      0.2592
    133  O         17.3630    3.7930   33.6610 O.2   115  VAL115     -0.2718
    134  CB        19.3750    2.4400   35.2000 C.3   115  VAL115      0.0266
    135  CG1       19.7800    1.5490   36.3800 C.3   115  VAL115      0.0020
    136  CG2       20.6000    2.7980   34.3570 C.3   115  VAL115      0.0020
    137  N         17.6780    2.2650   32.0530 N.am  116  SER116     -0.1952
    138  CA        17.1670    3.1260   30.9890 C.3   116  SER116      0.1924
    139  C         16.2520    2.3270   30.0780 C.2   116  SER116      0.2314
    140  O         16.3040    1.0960   30.0570 O.2   116  SER116     -0.2863
    141  CB        18.3200    3.6710   30.1440 C.3   116  SER116      0.2116
    142  OG        19.2490    4.3910   30.9300 O.3   116  SER116     -0.2180
    143  N         13.0110   11.6990   28.4380 N.3   119  LYS119     -0.1245
    144  CA        12.6750   10.7570   29.5010 C.3   119  LYS119      0.1561
    145  C         11.5400   11.3500   30.3350 C.2   119  LYS119      0.2260
    146  O         11.0920   10.7760   31.3370 O.2   119  LYS119     -0.2867
    147  CB        13.9060   10.4920   30.3670 C.3   119  LYS119      0.0271
    148  CG        15.1680   10.2320   29.5630 C.3   119  LYS119      0.0035
    149  CD        16.2920    9.7030   30.4330 C.3   119  LYS119      0.0206
    150  CE        15.9260    8.3530   31.0220 C.3   119  LYS119      0.1093
    151  NZ        17.1340    7.5900   31.4380 N.3   119  LYS119     -0.1314
    152  N         17.1330   18.1390   28.6870 N.3   124  MET124     -0.1245
    153  CA        17.9400   17.7090   29.8320 C.3   124  MET124      0.1570
    154  C         18.7280   18.9030   30.3690 C.2   124  MET124      0.2261
    155  O         19.3270   19.6640   29.5950 O.2   124  MET124     -0.2867
    156  CB        18.9370   16.6340   29.4080 C.3   124  MET124      0.0387
    157  CG        19.7800   16.0530   30.5740 C.3   124  MET124      0.0595
    158  SD        20.9580   14.8380   29.9840 S.3   124  MET124     -0.1393
    159  CE        19.8890   13.4320   29.6900 C.3   124  MET124      0.0692
    160  N         21.7900   20.0370   33.1440 N.3   126  ILE126     -0.1245
    161  CA        22.9440   19.5260   33.8850 C.3   126  ILE126      0.1561
    162  C         23.4490   20.6870   34.7340 C.2   126  ILE126      0.2260
    163  O         23.8320   21.7520   34.2000 O.2   126  ILE126     -0.2867
    164  CB        24.0920   19.0590   32.9740 C.3   126  ILE126      0.0252
    165  CG1       23.6240   17.9210   32.0500 C.3   126  ILE126      0.0019
    166  CG2       25.2700   18.5520   33.8640 C.3   126  ILE126      0.0019
    167  CD1       24.6530   17.4280   31.0820 C.3   126  ILE126      0.0001
    168  N         30.6330   18.0340   28.0380 N.3   155  TRP155     -0.1227
    169  CA        29.3050   17.5240   28.3890 C.3   155  TRP155      0.1737
    170  C         28.4610   17.2090   27.1530 C.2   155  TRP155      0.2595
    171  O         28.0610   18.1240   26.4240 O.2   155  TRP155     -0.2718
    172  CB        28.5670   18.5420   29.2660 C.3   155  TRP155      0.0564
    173  CG        29.3250   18.9910   30.4670 C.ar  155  TRP155      0.0003
    174  CD1       30.1620   20.0610   30.5620 C.ar  155  TRP155      0.0946
    175  CD2       29.4020   18.3100   31.7210 C.ar  155  TRP155      0.0152
    176  NE1       30.7670   20.0860   31.7980 N.ar  155  TRP155     -0.2442
    177  CE2       30.3170   19.0160   32.5280 C.ar  155  TRP155      0.0810
    178  CE3       28.7930   17.1630   32.2340 C.ar  155  TRP155      0.0012
    179  CZ2       30.6400   18.6130   33.8210 C.ar  155  TRP155      0.0191
    180  CZ3       29.1110   16.7650   33.5160 C.ar  155  TRP155      0.0001
    181  CH2       30.0250   17.4850   34.2960 C.ar  155  TRP155      0.0015
    182  N         28.2040   15.9250   26.9120 N.am  156  LEU156     -0.1980
    183  CA        27.4010   15.4990   25.7620 C.3   156  LEU156      0.1596
    184  C         27.9710   16.0900   24.4680 C.2   156  LEU156      0.2287
    185  O         29.1790   16.0000   24.2250 O.2   156  LEU156     -0.2864
    186  CB        25.9490   15.9370   25.9610 C.3   156  LEU156      0.0297
    187  CG        25.2770   15.3380   27.2060 C.3   156  LEU156      0.0022
    188  CD1       23.9200   15.9720   27.4630 C.3   156  LEU156      0.0001
    189  CD2       25.1400   13.8570   27.0040 C.3   156  LEU156      0.0001
@<TRIPOS>BOND
     1   185   184    2
     2     1     2    1
     3   184   183    1
     4     7     5    1
     5     6     5    1
     6     2     5    1
     7     2     3    1
     8   183   186    1
     9   183   182    1
    10    13    12    1
    11   186   187    1
    12   171   170    2
    13     8     3   am
    14     8     9    1
    15     3     4    2
    16   118   117    2
    17   182   170   am
    18   189   187    1
    19    12     9    1
    20   170   169    1
    21    11    10    2
    22   187   188    1
    23     9    10    1
    24   117   116    1
    25   114   113    1
    26    10    14   am
    27   168   169    1
    28   119   116    1
    29   119   120    1
    30   112   113    1
    31   112   111    1
    32   169   172    1
    33   143   144    1
    34   152   153    1
    35   116   115    1
    36   115   108   am
    37   110   111    1
    38   110   107    1
    39    14    15    1
    40   120   121    1
    41   172   173    1
    42   156   153    1
    43   156   157    1
    44   144   145    1
    45   144   147    1
    46   148   147    1
    47   148   149    1
    48   155   154    2
    49    15    16    1
    50    15    18    1
    51   159   158    1
    52   153   154    1
    53   122   121    1
    54    19    18    1
    55   158   157    1
    56   108   107    1
    57   108   109    2
    58   107   106    1
    59   140   139    2
    60   139   138    1
    61   141   142    1
    62   141   138    1
    63   145   146    2
    64    16    17    2
    65   149   150    1
    66   173   174   ar
    67   173   175   ar
    68   174   176   ar
    69   102   101    2
    70   138   137    1
    71   150   151    1
    72    49    47    1
    73   167   165    1
    74   106   101   am
    75    47    48    1
    76    47    44    1
    77   101   100    1
    78   175   178   ar
    79   175   177   ar
    80   176   177   ar
    81   165   164    1
    82   137   132   am
    83   178   180   ar
    84    44    45    1
    85    44    43    1
    86    46    45    2
    87   177   179   ar
    88    56    55   ar
    89    99   100    1
    90    38    37    2
    91   123   124    1
    92   100   103    1
    93   164   166    1
    94   164   161    1
    95   124   125    1
    96   124   127    1
    97   160   161    1
    98   132   133    2
    99   132   131    1
   100   180   181   ar
   101    43    37   am
   102   125   126    2
   103   129   127    1
   104    37    36    1
   105   130   131    1
   106   103   104    1
   107   103   105    1
   108   179   181   ar
   109    55    57   ar
   110    55    54    1
   111   161   162    1
   112   127   128    1
   113   163   162    2
   114   131   134    1
   115   136   134    1
   116    98    96   am
   117    54    51    1
   118    41    40   ar
   119    36    35    1
   120    36    39    1
   121    35    33   am
   122   134   135    1
   123    96    95    1
   124    96    97    2
   125    30    28   ar
   126    30    29   ar
   127    95    92    1
   128    28    26   ar
   129    53    52    2
   130    32    33    1
   131    32    31    1
   132    33    34    2
   133    40    39    1
   134    40    42   ar
   135    29    27   ar
   136    51    52    1
   137    51    50    1
   138    26    25   ar
   139    52    58   am
   140    93    92    1
   141    93    94    2
   142    27    25   ar
   143    80    78   ar
   144    80    82   ar
   145    92    91    1
   146    78    77   ar
   147    25    24    1
   148    82    81   ar
   149    76    77    1
   150    76    73    1
   151    77    79   ar
   152    89    88    1
   153    81    79   ar
   154    90    88    1
   155    58    59    1
   156    24    21    1
   157    59    60    1
   158    59    62    1
   159    88    87    1
   160    72    60   am
   161    72    73    1
   162    60    61    2
   163    73    74    1
   164    75    74    2
   165    62    63    1
   166    21    22    1
   167    21    20    1
   168    22    23    2
   169    87    84    1
   170    84    85    1
   171    84    83    1
   172    63    64   ar
   173    63    65   ar
   174    85    86    2
   175    64    66   ar
   176    65    68   ar
   177    65    67   ar
   178    68    70   ar
   179    66    67   ar
   180    67    69   ar
   181    70    71   ar
   182    69    71   ar
