@<TRIPOS>MOLECULE
tmp/1li3A00.pdb
 117 108 0 0 0
SMALL
GASTEIGER

@<TRIPOS>ATOM
      1  N         24.6060    6.8520   12.3660 N.3    78  ILE78      -0.1245
      2  CA        24.1980    6.1990   11.1270 C.3    78  ILE78       0.1561
      3  C         23.0100    5.3010   11.2750 C.2    78  ILE78       0.2260
      4  O         22.0480    5.3120   10.4720 O.2    78  ILE78      -0.2867
      5  CB        25.3770    5.3360   10.5530 C.3    78  ILE78       0.0252
      6  CG1       26.2850    6.2980    9.7490 C.3    78  ILE78       0.0019
      7  CG2       24.8530    4.2550    9.5660 C.3    78  ILE78       0.0019
      8  CD1       27.7040    5.7660    9.4940 C.3    78  ILE78       0.0001
      9  N         20.0680    6.6270    5.9100 N.3    84  LEU84      -0.1245
     10  CA        21.4070    6.0640    6.0590 C.3    84  LEU84       0.1561
     11  C         21.5460    4.5740    6.3510 C.2    84  LEU84       0.2260
     12  O         22.2900    3.8690    5.6990 O.2    84  LEU84      -0.2867
     13  CB        22.1560    6.7430    7.2400 C.3    84  LEU84       0.0270
     14  CG        22.4390    8.2180    6.9870 C.3    84  LEU84       0.0019
     15  CD1       23.6370    8.7060    7.7860 C.3    84  LEU84       0.0001
     16  CD2       22.8310    8.4600    5.5310 C.3    84  LEU84       0.0001
     17  N         21.5740    1.9520    3.6660 N.3    87  VAL87      -0.1231
     18  CA        22.7140    1.9590    2.7860 C.3    87  VAL87       0.1692
     19  C         23.8710    1.2510    3.4910 C.2    87  VAL87       0.2592
     20  O         24.5960    0.4120    3.0040 O.2    87  VAL87      -0.2718
     21  CB        23.0710    3.4040    2.2920 C.3    87  VAL87       0.0266
     22  CG1       24.2070    3.2320    1.2510 C.3    87  VAL87       0.0020
     23  CG2       21.8090    4.1840    1.7920 C.3    87  VAL87       0.0020
     24  N         24.0700    1.6860    4.6690 N.am   88  TYR88      -0.1976
     25  CA        25.1290    1.1630    5.4540 C.3    88  TYR88       0.1639
     26  C         25.0260   -0.3340    5.6030 C.2    88  TYR88       0.2290
     27  O         25.9740   -1.0840    5.5110 O.2    88  TYR88      -0.2864
     28  CB        24.8510    1.7410    6.8260 C.3    88  TYR88       0.0560
     29  CG        25.9790    1.3870    7.7410 C.ar   88  TYR88      -0.0198
     30  CD1       27.2010    2.0470    7.6430 C.ar   88  TYR88      -0.0009
     31  CD2       25.8330    0.3460    8.6470 C.ar   88  TYR88      -0.0009
     32  CE1       28.2500    1.7370    8.5010 C.ar   88  TYR88       0.0417
     33  CE2       26.8880   -0.0010    9.4870 C.ar   88  TYR88       0.0417
     34  CZ        28.0970    0.6950    9.4080 C.ar   88  TYR88       0.1957
     35  OH        29.1510    0.3670   10.2220 O.3    88  TYR88      -0.2866
     36  N         26.2870   -2.5520    2.7500 N.3    91  LEU91      -0.1245
     37  CA        27.6890   -2.6330    2.3620 C.3    91  LEU91       0.1561
     38  C         28.5090   -3.6850    3.0830 C.2    91  LEU91       0.2260
     39  O         28.1390   -4.1180    4.1800 O.2    91  LEU91      -0.2867
     40  CB        28.3880   -1.3500    2.8780 C.3    91  LEU91       0.0270
     41  CG        27.7360   -0.0830    2.2950 C.3    91  LEU91       0.0019
     42  CD1       28.1680    1.1690    3.0420 C.3    91  LEU91       0.0001
     43  CD2       28.2230    0.0510    0.8600 C.3    91  LEU91       0.0001
     44  N         32.0370    4.7870    5.0470 N.3    99  ALA99      -0.1245
     45  CA        30.8160    5.5180    5.4150 C.3    99  ALA99       0.1562
     46  C         31.0170    6.2000    6.7700 C.2    99  ALA99       0.2260
     47  O         30.6880    7.3580    6.9770 O.2    99  ALA99      -0.2867
     48  CB        29.5410    4.5880    5.3850 C.3    99  ALA99       0.0290
     49  N         33.3630    9.2990    6.3810 N.3   102  GLN102     -0.1231
     50  CA        32.6940   10.4880    5.8680 C.3   102  GLN102      0.1698
     51  C         31.7670   11.1240    6.9080 C.2   102  GLN102      0.2592
     52  O         31.6680   12.3190    7.0860 O.2   102  GLN102     -0.2718
     53  CB        31.9140   10.0560    4.6170 C.3   102  GLN102      0.0381
     54  CG        31.3910   11.1860    3.7430 C.3   102  GLN102      0.0905
     55  CD        30.8220   10.6980    2.4230 C.2   102  GLN102      0.2608
     56  OE1       30.2770    9.5930    2.3200 O.2   102  GLN102     -0.2717
     57  NE2       30.9410   11.5350    1.4140 N.am  102  GLN102     -0.0878
     58  N         31.0300   10.3020    7.6300 N.am  103  VAL103     -0.1980
     59  CA        30.1410   10.8520    8.6300 C.3   103  VAL103      0.1595
     60  C         30.9020   11.5220    9.7470 C.2   103  VAL103      0.2287
     61  O         30.4560   12.5220   10.2970 O.2   103  VAL103     -0.2864
     62  CB        29.2900    9.7740    9.3180 C.3   103  VAL103      0.0276
     63  CG1       28.3660   10.3920   10.3880 C.3   103  VAL103      0.0022
     64  CG2       28.1720    9.3650    8.3870 C.3   103  VAL103      0.0022
     65  N         26.3460   14.7050    5.1000 N.3   111  VAL111     -0.1245
     66  CA        26.1780   13.5050    4.3490 C.3   111  VAL111      0.1561
     67  C         24.7960   13.3290    3.7840 C.2   111  VAL111      0.2260
     68  O         24.6130   12.6440    2.7850 O.2   111  VAL111     -0.2867
     69  CB        26.5310   12.3790    5.2760 C.3   111  VAL111      0.0252
     70  CG1       25.8060   11.1550    4.7810 C.3   111  VAL111      0.0019
     71  CG2       28.0470   12.3820    5.5060 C.3   111  VAL111      0.0019
     72  N         24.3650   13.7720   -0.1020 N.3   114  PHE114     -0.1241
     73  CA        24.9570   12.7920   -0.9750 C.3   114  PHE114      0.1605
     74  C         23.9090   11.8130   -1.4600 C.2   114  PHE114      0.2264
     75  O         24.2120   10.7190   -1.9200 O.2   114  PHE114     -0.2867
     76  CB        26.1850   12.1820   -0.2600 C.3   114  PHE114      0.0534
     77  CG        27.4400   13.0410   -0.3370 C.ar  114  PHE114     -0.0203
     78  CD1       27.5820   14.1290    0.5220 C.ar  114  PHE114     -0.0042
     79  CD2       28.4560   12.8260   -1.2710 C.ar  114  PHE114     -0.0042
     80  CE1       28.6970   14.9660    0.4710 C.ar  114  PHE114     -0.0003
     81  CE2       29.5880   13.6370   -1.3290 C.ar  114  PHE114     -0.0003
     82  CZ        29.7200   14.6990   -0.4350 C.ar  114  PHE114     -0.0000
     83  N         24.4550    8.0120   -2.5630 N.3   118  LEU118     -0.1245
     84  CA        24.0400    6.9490   -1.6810 C.3   118  LEU118      0.1561
     85  C         23.2850    5.9240   -2.4470 C.2   118  LEU118      0.2260
     86  O         23.4070    4.7300   -2.2290 O.2   118  LEU118     -0.2867
     87  CB        23.0070    7.4070   -0.6080 C.3   118  LEU118      0.0270
     88  CG        23.6010    8.4160    0.3730 C.3   118  LEU118      0.0019
     89  CD1       22.4170    9.0730    1.0430 C.3   118  LEU118      0.0001
     90  CD2       24.6510    7.8100    1.3390 C.3   118  LEU118      0.0001
     91  N         25.7270    3.7780   -4.3850 N.3   121  LEU121     -0.1245
     92  CA        26.4180    2.8320   -3.5340 C.3   121  LEU121      0.1561
     93  C         25.4220    1.7160   -3.1560 C.2   121  LEU121      0.2260
     94  O         25.7130    0.5250   -3.0700 O.2   121  LEU121     -0.2867
     95  CB        26.8270    3.5380   -2.2160 C.3   121  LEU121      0.0270
     96  CG        28.0060    4.4990   -2.4630 C.3   121  LEU121      0.0019
     97  CD1       28.2580    5.2990   -1.2020 C.3   121  LEU121      0.0001
     98  CD2       29.2960    3.7620   -2.8000 C.3   121  LEU121      0.0001
     99  N         30.6060   11.0180   -6.2500 N.3   133  LEU133     -0.1245
    100  CA        31.1390   11.5320   -4.9900 C.3   133  LEU133      0.1561
    101  C         32.1810   12.6890   -5.1380 C.2   133  LEU133      0.2260
    102  O         32.3410   13.5600   -4.2760 O.2   133  LEU133     -0.2867
    103  CB        31.8560   10.3470   -4.1960 C.3   133  LEU133      0.0270
    104  CG        30.9370    9.3540   -3.4280 C.3   133  LEU133      0.0019
    105  CD1       31.7660    8.1200   -2.9810 C.3   133  LEU133      0.0001
    106  CD2       30.1620   10.0130   -2.2940 C.3   133  LEU133      0.0001
    107  N         35.6210    3.4140   -1.1980 N.3   153  PHE153     -0.1241
    108  CA        34.3040    2.9360   -1.5710 C.3   153  PHE153      0.1605
    109  C         34.2810    2.2750   -2.9370 C.2   153  PHE153      0.2264
    110  O         33.4470    1.4330   -3.2450 O.2   153  PHE153     -0.2867
    111  CB        33.4200    4.1680   -1.8090 C.3   153  PHE153      0.0534
    112  CG        32.7930    4.7820   -0.5800 C.ar  153  PHE153     -0.0203
    113  CD1       33.0180    6.1280   -0.2720 C.ar  153  PHE153     -0.0042
    114  CD2       31.8550    4.0620    0.1840 C.ar  153  PHE153     -0.0042
    115  CE1       32.3990    6.6960    0.8520 C.ar  153  PHE153     -0.0003
    116  CE2       31.2130    4.6410    1.2920 C.ar  153  PHE153     -0.0003
    117  CZ        31.4690    5.9800    1.6140 C.ar  153  PHE153     -0.0000
@<TRIPOS>BOND
     1    99   100    1
     2   101   100    1
     3   101   102    2
     4   100   103    1
     5    91    92    1
     6   103   104    1
     7    92    93    1
     8    92    95    1
     9   104   105    1
    10   104   106    1
    11   110   109    2
    12    93    94    2
    13   109   108    1
    14    98    96    1
    15    83    84    1
    16    96    95    1
    17    96    97    1
    18    85    86    2
    19    85    84    1
    20    75    74    2
    21   111   108    1
    22   111   112    1
    23    84    87    1
    24   108   107    1
    25    74    73    1
    26    81    79   ar
    27    81    82   ar
    28    79    77   ar
    29    73    76    1
    30    73    72    1
    31    87    88    1
    32   112   113   ar
    33   112   114   ar
    34    82    80   ar
    35    77    76    1
    36    77    78   ar
    37   113   115   ar
    38   114   116   ar
    39    88    89    1
    40    88    90    1
    41    80    78   ar
    42   115   117   ar
    43    43    41    1
    44    22    21    1
    45   116   117   ar
    46    57    55   am
    47    23    21    1
    48    21    18    1
    49    41    40    1
    50    41    42    1
    51    56    55    2
    52    37    36    1
    53    37    40    1
    54    37    38    1
    55    55    54    1
    56    68    67    2
    57    18    19    1
    58    18    17    1
    59    20    19    2
    60    38    39    2
    61    19    24   am
    62    54    53    1
    63    67    66    1
    64    66    65    1
    65    66    69    1
    66    53    50    1
    67    24    25    1
    68    70    69    1
    69    44    45    1
    70    69    71    1
    71    48    45    1
    72    45    46    1
    73    25    26    1
    74    25    28    1
    75    27    26    2
    76    16    14    1
    77    12    11    2
    78    50    49    1
    79    50    51    1
    80     9    10    1
    81    10    11    1
    82    10    13    1
    83    46    47    2
    84    28    29    1
    85    51    52    2
    86    51    58   am
    87    14    13    1
    88    14    15    1
    89    58    59    1
    90    30    29   ar
    91    30    32   ar
    92    29    31   ar
    93    64    62    1
    94    32    34   ar
    95    59    62    1
    96    59    60    1
    97    31    33   ar
    98    62    63    1
    99    34    33   ar
   100    34    35    1
   101     8     6    1
   102     7     5    1
   103    60    61    2
   104     6     5    1
   105     4     3    2
   106     5     2    1
   107     2     3    1
   108     2     1    1
