@<TRIPOS>MOLECULE
tmp/1liaA00.pdb
 217 211 0 0 0
SMALL
GASTEIGER

@<TRIPOS>ATOM
      1  N        -18.7550   46.3040   28.0630 N.3    59  CYS59      -0.1221
      2  CA       -19.5690   45.1710   27.6490 C.3    59  CYS59       0.1808
      3  C        -20.9980   45.5340   27.8730 C.2    59  CYS59       0.2601
      4  O        -21.7990   45.2540   27.0030 O.2    59  CYS59      -0.2717
      5  CB       -19.2130   43.9380   28.4760 C.3    59  CYS59       0.0970
      6  SG       -20.6940   43.1780   29.3000 S.3    59  CYS59      -0.0800
      7  N        -21.3360   46.1750   28.9740 N.am   60  PHE60      -0.1976
      8  CA       -22.7100   46.5400   29.1990 C.3    60  PHE60       0.1639
      9  C        -23.1350   47.6910   28.2970 C.2    60  PHE60       0.2290
     10  O        -24.2970   47.6980   27.9090 O.2    60  PHE60      -0.2864
     11  CB       -22.8950   46.9070   30.6460 C.3    60  PHE60       0.0560
     12  CG       -22.7080   45.7150   31.5700 C.ar   60  PHE60      -0.0200
     13  CD1      -23.6320   44.6750   31.5360 C.ar   60  PHE60      -0.0042
     14  CD2      -21.6730   45.6960   32.4830 C.ar   60  PHE60      -0.0042
     15  CE1      -23.5330   43.6240   32.4180 C.ar   60  PHE60      -0.0003
     16  CE2      -21.5820   44.6360   33.3690 C.ar   60  PHE60      -0.0003
     17  CZ       -22.5040   43.6130   33.3370 C.ar   60  PHE60      -0.0000
     18  N        -28.0030   42.2990   28.8520 N.3    66  ASN66      -0.1240
     19  CA       -27.5410   41.4930   29.9800 C.3    66  ASN66       0.1653
     20  C        -28.2910   41.8230   31.2310 C.2    66  ASN66       0.2266
     21  O        -28.4600   40.9540   32.0620 O.2    66  ASN66      -0.2867
     22  CB       -26.0520   41.6850   30.3090 C.3    66  ASN66       0.1155
     23  CG       -25.0520   41.1860   29.2750 C.2    66  ASN66       0.2627
     24  OD1      -25.3380   40.2960   28.4610 O.2    66  ASN66      -0.2716
     25  ND2      -23.8500   41.7460   29.2910 N.am   66  ASN66      -0.0877
     26  N        -27.3810   37.2550   32.4840 N.3    72  ALA72      -0.1231
     27  CA       -26.2090   37.3180   33.3810 C.3    72  ALA72       0.1694
     28  C        -25.8280   38.5970   34.1760 C.2    72  ALA72       0.2592
     29  O        -24.9690   38.5740   35.0580 O.2    72  ALA72      -0.2718
     30  CB       -25.0020   36.8470   32.5500 C.3    72  ALA72       0.0304
     31  N        -26.5270   39.7000   33.9760 N.am   73  GLY73      -0.1957
     32  CA       -26.3310   40.8910   34.7600 C.3    73  GLY73       0.1869
     33  C        -27.6930   41.4230   35.1370 C.2    73  GLY73       0.2309
     34  O        -27.9240   42.6390   35.0950 O.2    73  GLY73      -0.2863
     35  N        -25.4360   41.3920   42.2840 N.3    77  GLU77      -0.1231
     36  CA       -24.4690   40.3650   42.6600 C.3    77  GLU77       0.1699
     37  C        -23.8210   39.8490   41.3700 C.2    77  GLU77       0.2592
     38  O        -22.5970   39.8580   41.2150 O.2    77  GLU77      -0.2718
     39  CB       -25.2150   39.2610   43.3880 C.3    77  GLU77       0.0402
     40  CG       -24.4500   38.1630   44.1850 C.3    77  GLU77       0.1161
     41  CD       -24.4330   36.6920   43.6770 C.2    77  GLU77       0.3649
     42  OE1      -23.7280   36.3820   42.6990 O.co2  77  GLU77      -0.2457
     43  OE2      -25.0320   35.7780   44.2790 O.co2  77  GLU77      -0.2457
     44  N        -24.6540   39.5850   40.3670 N.am   78  LYS78      -0.1980
     45  CA       -24.1420   39.2230   39.0570 C.3    78  LYS78       0.1596
     46  C        -23.2670   40.2550   38.3190 C.2    78  LYS78       0.2287
     47  O        -22.1590   39.9340   37.8440 O.2    78  LYS78      -0.2864
     48  CB       -25.3160   38.8440   38.2220 C.3    78  LYS78       0.0298
     49  CG       -25.7410   37.4270   38.6270 C.3    78  LYS78       0.0038
     50  CD       -27.0260   36.9930   37.9400 C.3    78  LYS78       0.0206
     51  CE       -27.1270   35.5110   38.1610 C.3    78  LYS78       0.1093
     52  NZ       -27.8400   34.9240   37.0360 N.3    78  LYS78      -0.1314
     53  N        -19.8330   40.3140   39.8910 N.3    81  LYS81      -0.1231
     54  CA       -19.1160   39.1250   39.4330 C.3    81  LYS81       0.1693
     55  C        -18.5110   39.2500   38.0290 C.2    81  LYS81       0.2592
     56  O        -17.4530   38.6760   37.8010 O.2    81  LYS81      -0.2718
     57  CB       -20.0560   37.9320   39.4710 C.3    81  LYS81       0.0285
     58  CG       -20.1510   37.2240   40.8190 C.3    81  LYS81       0.0035
     59  CD       -21.0440   35.9860   40.7940 C.3    81  LYS81       0.0206
     60  CE       -20.6990   34.9900   41.9120 C.3    81  LYS81       0.1093
     61  NZ       -21.6950   33.9390   41.9640 N.3    81  LYS81      -0.1314
     62  N        -19.1270   40.0090   37.1030 N.am   82  CYS82      -0.1970
     63  CA       -18.5770   40.3180   35.7800 C.3    82  CYS82       0.1712
     64  C        -17.3310   41.2030   35.8760 C.2    82  CYS82       0.2296
     65  O        -16.2530   40.8760   35.3590 O.2    82  CYS82      -0.2864
     66  CB       -19.6680   41.0090   34.9380 C.3    82  CYS82       0.0983
     67  SG       -19.1140   41.3860   33.2510 S.3    82  CYS82      -0.0798
     68  N        -15.4130   41.3770   38.4760 N.3    84  ARG84      -0.1231
     69  CA       -14.4490   40.4860   39.1320 C.3    84  ARG84       0.1694
     70  C        -13.7600   39.4950   38.1900 C.2    84  ARG84       0.2592
     71  O        -12.6690   39.0000   38.4530 O.2    84  ARG84      -0.2718
     72  CB       -15.2230   39.7700   40.2240 C.3    84  ARG84       0.0321
     73  CG       -14.6080   38.5470   40.9020 C.3    84  ARG84       0.0489
     74  CD       -15.6830   37.5090   41.2030 C.3    84  ARG84       0.2205
     75  NE       -16.0820   36.7300   40.0170 N.pl3  84  ARG84      -0.0865
     76  CZ       -16.9350   35.6810   40.0320 C.cat  84  ARG84       0.5346
     77  NH1      -17.5230   35.2480   41.1470 N.pl3  84  ARG84       0.1354
     78  NH2      -17.1700   34.9920   38.9130 N.pl3  84  ARG84       0.1354
     79  N        -14.4040   39.1470   37.0980 N.am   85  ASP85      -0.1960
     80  CA       -13.8580   38.3090   36.0510 C.3    85  ASP85       0.1840
     81  C        -12.9590   39.1180   35.1850 C.2    85  ASP85       0.2621
     82  O        -11.9380   38.6290   34.7440 O.2    85  ASP85      -0.2715
     83  CB       -14.9630   37.7180   35.1930 C.3    85  ASP85       0.1450
     84  CG       -15.7770   36.6330   35.8710 C.2    85  ASP85       0.3671
     85  OD1      -15.6280   36.3490   37.0720 O.co2  85  ASP85      -0.2456
     86  OD2      -16.5960   36.0750   35.1710 O.co2  85  ASP85      -0.2456
     87  N        -13.2570   40.3770   34.9450 N.am   86  ILE86      -0.1977
     88  CA       -12.3360   41.2040   34.2110 C.3    86  ILE86       0.1596
     89  C        -11.1400   41.5000   35.0840 C.2    86  ILE86       0.2287
     90  O        -10.0480   41.6200   34.5430 O.2    86  ILE86      -0.2864
     91  CB       -13.0630   42.4900   33.7400 C.3    86  ILE86       0.0276
     92  CG1      -14.1960   42.0310   32.8090 C.3    86  ILE86       0.0022
     93  CG2      -12.1790   43.4080   32.9400 C.3    86  ILE86       0.0022
     94  CD1      -15.5300   42.7710   33.0430 C.3    86  ILE86       0.0001
     95  N         -9.9460   39.1870   37.3000 N.3    88  HIS88      -0.1226
     96  CA        -9.2640   37.8880   37.2660 C.3    88  HIS88       0.1752
     97  C         -8.4260   37.6710   36.0300 C.2    88  HIS88       0.2596
     98  O         -7.2530   37.3210   36.1000 O.2    88  HIS88      -0.2718
     99  CB       -10.2940   36.7710   37.3910 C.3    88  HIS88       0.0759
    100  CG       -10.7900   36.5770   38.8250 C.ar   88  HIS88       0.0818
    101  ND1      -10.2490   36.9110   39.9950 N.ar   88  HIS88      -0.2268
    102  CD2      -11.9450   35.9020   39.1210 C.ar   88  HIS88       0.1154
    103  CE1      -11.0000   36.4510   40.9520 C.ar   88  HIS88       0.1986
    104  NE2      -12.0110   35.8500   40.4230 N.ar   88  HIS88      -0.2212
    105  N         -9.0190   38.0670   34.9180 N.am   89  TYR89      -0.1976
    106  CA        -8.3690   38.0020   33.6310 C.3    89  TYR89       0.1639
    107  C         -7.2210   39.0060   33.5290 C.2    89  TYR89       0.2290
    108  O         -6.1400   38.6530   33.0600 O.2    89  TYR89      -0.2864
    109  CB        -9.4400   38.2160   32.5430 C.3    89  TYR89       0.0560
    110  CG       -10.1710   36.9560   32.0120 C.ar   89  TYR89      -0.0198
    111  CD1       -9.4520   35.8550   31.5510 C.ar   89  TYR89      -0.0009
    112  CD2      -11.5590   36.9020   31.9280 C.ar   89  TYR89      -0.0009
    113  CE1      -10.1010   34.7480   31.0120 C.ar   89  TYR89       0.0417
    114  CE2      -12.2130   35.7990   31.3910 C.ar   89  TYR89       0.0417
    115  CZ       -11.4850   34.7240   30.9330 C.ar   89  TYR89       0.1957
    116  OH       -12.1120   33.6450   30.3370 O.3    89  TYR89      -0.2866
    117  N         -5.3900   40.1510   36.0010 N.3    91  ARG91      -0.1231
    118  CA        -4.3890   39.6940   36.9480 C.3    91  ARG91       0.1694
    119  C         -3.6270   38.5660   36.2550 C.2    91  ARG91       0.2591
    120  O         -2.4080   38.5060   36.3640 O.2    91  ARG91      -0.2718
    121  CB        -5.1230   39.2410   38.2150 C.3    91  ARG91       0.0321
    122  CG        -4.3190   39.0290   39.5040 C.3    91  ARG91       0.0489
    123  CD        -5.2480   38.7920   40.7170 C.3    91  ARG91       0.2205
    124  NE        -6.2940   37.7940   40.4600 N.pl3  91  ARG91      -0.0865
    125  CZ        -6.1120   36.4480   40.5480 C.cat  91  ARG91       0.5346
    126  NH1       -4.9520   35.9090   40.9330 N.pl3  91  ARG91       0.1354
    127  NH2       -7.1140   35.6060   40.2680 N.pl3  91  ARG91       0.1354
    128  N         -4.3220   37.7170   35.4620 N.am   92  LEU92      -0.1980
    129  CA        -3.6760   36.7130   34.6280 C.3    92  LEU92       0.1596
    130  C         -2.9090   37.3870   33.4980 C.2    92  LEU92       0.2287
    131  O         -1.8460   36.8800   33.1640 O.2    92  LEU92      -0.2864
    132  CB        -4.6850   35.7660   34.0080 C.3    92  LEU92       0.0297
    133  CG        -5.1130   34.3610   34.4740 C.3    92  LEU92       0.0022
    134  CD1       -4.6940   34.0710   35.8970 C.3    92  LEU92       0.0001
    135  CD2       -6.6340   34.2750   34.3640 C.3    92  LEU92       0.0001
    136  N         -4.9970   28.7850   34.2010 N.3   108  TRP108     -0.1227
    137  CA        -5.9700   29.2860   35.1500 C.3   108  TRP108      0.1737
    138  C         -7.1490   29.9970   34.5170 C.2   108  TRP108      0.2596
    139  O         -8.2350   29.9610   35.1380 O.2   108  TRP108     -0.2718
    140  CB        -5.2970   30.2300   36.1900 C.3   108  TRP108      0.0564
    141  CG        -4.1130   29.6220   36.9600 C.ar  108  TRP108      0.0003
    142  CD1       -4.0630   28.2810   37.2480 C.ar  108  TRP108      0.0946
    143  CD2       -2.9890   30.2840   37.4300 C.ar  108  TRP108      0.0152
    144  NE1       -2.9320   28.0870   37.8810 N.ar  108  TRP108     -0.2442
    145  CE2       -2.2790   29.2410   38.0130 C.ar  108  TRP108      0.0810
    146  CE3       -2.4410   31.5580   37.4610 C.ar  108  TRP108      0.0012
    147  CZ2       -1.0600   29.4300   38.6370 C.ar  108  TRP108      0.0191
    148  CZ3       -1.2220   31.7510   38.0710 C.ar  108  TRP108      0.0001
    149  CH2       -0.5290   30.7070   38.6590 C.ar  108  TRP108      0.0015
    150  N         -6.9950   30.5640   33.3050 N.am  109  GLY109     -0.1957
    151  CA        -8.1280   31.2290   32.7210 C.3   109  GLY109      0.1869
    152  C         -8.6170   30.5860   31.4750 C.2   109  GLY109      0.2309
    153  O         -9.7900   30.7250   31.2040 O.2   109  GLY109     -0.2863
    154  N        -17.5610   26.1770   31.2610 N.3   116  VAL116     -0.1231
    155  CA       -18.1390   26.9860   32.3180 C.3   116  VAL116      0.1692
    156  C        -19.0530   28.0630   31.7550 C.2   116  VAL116      0.2592
    157  O        -20.1440   28.3070   32.2760 O.2   116  VAL116     -0.2718
    158  CB       -17.0030   27.6190   33.1350 C.3   116  VAL116      0.0266
    159  CG1      -17.5780   28.4070   34.3000 C.3   116  VAL116      0.0020
    160  CG2      -16.0630   26.5480   33.6400 C.3   116  VAL116      0.0020
    161  N        -18.7800   28.7000   30.6190 N.am  117  TYR117     -0.1976
    162  CA       -19.6240   29.8160   30.2260 C.3   117  TYR117      0.1639
    163  C        -20.8550   29.3330   29.4910 C.2   117  TYR117      0.2290
    164  O        -21.8930   30.0150   29.4740 O.2   117  TYR117     -0.2864
    165  CB       -18.6990   30.6820   29.4170 C.3   117  TYR117      0.0560
    166  CG       -17.5430   31.3350   30.1650 C.ar  117  TYR117     -0.0198
    167  CD1      -17.4000   31.2810   31.5220 C.ar  117  TYR117     -0.0009
    168  CD2      -16.6010   32.0120   29.4270 C.ar  117  TYR117     -0.0009
    169  CE1      -16.3300   31.8970   32.1310 C.ar  117  TYR117      0.0417
    170  CE2      -15.5250   32.6300   30.0190 C.ar  117  TYR117      0.0417
    171  CZ       -15.3920   32.5740   31.3900 C.ar  117  TYR117      0.1957
    172  OH       -14.3400   33.2190   32.0330 O.3   117  TYR117     -0.2866
    173  N        -23.2570   28.0110   32.5050 N.3   120  LEU120     -0.1245
    174  CA       -23.7400   29.1950   33.2450 C.3   120  LEU120      0.1561
    175  C        -24.2740   30.3450   32.4410 C.2   120  LEU120      0.2260
    176  O        -24.5690   31.4290   32.9790 O.2   120  LEU120     -0.2867
    177  CB       -22.6160   29.7320   34.1500 C.3   120  LEU120      0.0270
    178  CG       -22.3280   29.1420   35.5740 C.3   120  LEU120      0.0019
    179  CD1      -22.4470   27.6430   35.6260 C.3   120  LEU120      0.0001
    180  CD2      -20.9150   29.5100   35.9660 C.3   120  LEU120      0.0001
    181  N        -23.1030   32.6330   30.0520 N.3   122  LEU122     -0.1231
    182  CA       -22.2650   33.8220   30.0210 C.3   122  LEU122      0.1678
    183  C        -21.7590   33.9610   28.5890 C.2   122  LEU122      0.2434
    184  O        -20.9760   33.0950   28.1710 O.2   122  LEU122     -0.2733
    185  CB       -21.0710   33.6750   31.0010 C.3   122  LEU122      0.0284
    186  CG       -21.1600   33.9710   32.5060 C.3   122  LEU122      0.0019
    187  CD1      -22.6150   34.1380   32.8670 C.3   122  LEU122      0.0001
    188  CD2      -20.4410   32.8670   33.3190 C.3   122  LEU122      0.0001
    189  N        -22.1200   34.9760   27.7570 N.am  123  PRO123     -0.2729
    190  CA       -21.7090   35.0400   26.3540 C.3   123  PRO123      0.1401
    191  C        -20.2650   35.3860   26.0700 C.2   123  PRO123      0.2269
    192  O        -19.8310   36.4510   26.5150 O.2   123  PRO123     -0.2865
    193  CB       -22.6200   36.0820   25.7270 C.3   123  PRO123      0.0296
    194  CG       -23.8220   36.0770   26.6310 C.3   123  PRO123      0.0237
    195  CD       -23.1760   35.9740   28.0110 C.3   123  PRO123      0.0939
    196  N        -19.4040   39.1690   25.0120 N.3   126  ALA126     -0.1231
    197  CA       -19.4300   40.1370   26.0870 C.3   126  ALA126      0.1694
    198  C        -18.0650   40.1970   26.7550 C.2   126  ALA126      0.2592
    199  O        -17.6260   41.3090   27.0820 O.2   126  ALA126     -0.2718
    200  CB       -20.5010   39.7460   27.1230 C.3   126  ALA126      0.0304
    201  N        -17.3670   39.0590   26.9030 N.am  127  TYR127     -0.1976
    202  CA       -16.0000   39.1050   27.4070 C.3   127  TYR127      0.1639
    203  C        -15.0810   39.6480   26.3270 C.2   127  TYR127      0.2290
    204  O        -14.2270   40.4610   26.6310 O.2   127  TYR127     -0.2864
    205  CB       -15.4890   37.7290   27.8170 C.3   127  TYR127      0.0560
    206  CG       -16.0960   37.1370   29.0930 C.ar  127  TYR127     -0.0198
    207  CD1      -17.2910   36.4260   29.0520 C.ar  127  TYR127     -0.0009
    208  CD2      -15.4050   37.2670   30.2830 C.ar  127  TYR127     -0.0009
    209  CE1      -17.7910   35.8420   30.1970 C.ar  127  TYR127      0.0417
    210  CE2      -15.8880   36.6820   31.4380 C.ar  127  TYR127      0.0417
    211  CZ       -17.0830   35.9720   31.3890 C.ar  127  TYR127      0.1957
    212  OH       -17.5610   35.3860   32.5490 O.3   127  TYR127     -0.2866
    213  N        -15.1580   43.5650   26.2800 N.3   130  ALA130     -0.1245
    214  CA       -14.3090   44.0750   27.3320 C.3   130  ALA130      0.1562
    215  C        -12.8540   44.1210   26.8510 C.2   130  ALA130      0.2260
    216  O        -12.2170   45.1800   26.8580 O.2   130  ALA130     -0.2867
    217  CB       -14.4460   43.1710   28.5480 C.3   130  ALA130      0.0290
@<TRIPOS>BOND
     1   196   197    1
     2   193   190    1
     3   193   194    1
     4   191   190    1
     5   191   192    2
     6   197   198    1
     7   197   200    1
     8   213   214    1
     9   203   204    2
    10   203   202    1
    11   190   189    1
    12   194   195    1
    13   198   201   am
    14   198   199    2
    15   215   216    2
    16   215   214    1
    17   201   202    1
    18     4     3    2
    19   214   217    1
    20   202   205    1
    21     2     3    1
    22     2     1    1
    23     2     5    1
    24   189   195    1
    25   189   183   am
    26   205   206    1
    27     3     7   am
    28    10     9    2
    29   184   183    2
    30     9     8    1
    31    24    23    2
    32     5     6    1
    33   183   182    1
    34    18    19    1
    35     7     8    1
    36   207   206   ar
    37   207   209   ar
    38   206   208   ar
    39     8    11    1
    40    23    25   am
    41    23    22    1
    42   165   166    1
    43   165   162    1
    44   168   170   ar
    45   168   166   ar
    46   164   163    2
    47   163   162    1
    48    19    22    1
    49    19    20    1
    50   170   171   ar
    51   182   181    1
    52   182   185    1
    53   166   167   ar
    54   209   211   ar
    55   162   161    1
    56   208   210   ar
    57   116   115    1
    58   161   156   am
    59    11    12    1
    60   115   113   ar
    61   115   114   ar
    62   185   186    1
    63   113   111   ar
    64   153   152    2
    65    20    21    2
    66   154   155    1
    67   211   210   ar
    68   211   212    1
    69   171   172    1
    70   171   169   ar
    71   114   112   ar
    72   152   151    1
    73   167   169   ar
    74    13    12   ar
    75    13    15   ar
    76   111   110   ar
    77    12    14   ar
    78   156   157    2
    79   156   155    1
    80   112   110   ar
    81   110   109    1
    82   155   158    1
    83    15    17   ar
    84   175   176    2
    85   175   174    1
    86    14    16   ar
    87    26    27    1
    88   173   174    1
    89   186   187    1
    90   186   188    1
    91   109   106    1
    92    30    27    1
    93   151   150    1
    94    92    94    1
    95    92    91    1
    96    93    91    1
    97   108   107    2
    98   158   160    1
    99   158   159    1
   100   131   130    2
   101   174   177    1
   102    67    66    1
   103   150   138   am
   104    17    16   ar
   105    27    28    1
   106   130   129    1
   107   107   106    1
   108   106   105    1
   109    91    88    1
   110    31    28   am
   111    31    32    1
   112   132   133    1
   113   132   129    1
   114   177   178    1
   115    28    29    2
   116   136   137    1
   117    88    87    1
   118    88    89    1
   119   135   133    1
   120   133   134    1
   121   138   139    2
   122   138   137    1
   123    90    89    2
   124   129   128    1
   125    82    81    2
   126    32    33    1
   127   105    97   am
   128    66    63    1
   129    87    81   am
   130    34    33    2
   131   137   140    1
   132    86    84   ar
   133    81    80    1
   134    83    84    1
   135    83    80    1
   136    65    64    2
   137   128   119   am
   138   178   179    1
   139   178   180    1
   140    63    64    1
   141    63    62    1
   142    84    85   ar
   143   117   118    1
   144    97    98    2
   145    97    96    1
   146    80    79    1
   147   140   141    1
   148   119   120    2
   149   119   118    1
   150   118   121    1
   151   141   142   ar
   152   141   143   ar
   153    52    51    1
   154    79    70   am
   155    62    55   am
   156   142   144   ar
   157    96    95    1
   158    96    99    1
   159    99   100    1
   160   143   146   ar
   161   143   145   ar
   162   146   148   ar
   163    56    55    2
   164    47    46    2
   165   144   145   ar
   166    50    51    1
   167    50    49    1
   168   145   147   ar
   169    55    54    1
   170   148   149   ar
   171    70    71    2
   172    70    69    1
   173   121   122    1
   174    48    49    1
   175    48    45    1
   176    46    45    1
   177    68    69    1
   178   147   149   ar
   179   100   102   ar
   180   100   101   ar
   181    78    76    1
   182    45    44    1
   183   102   104   ar
   184    69    72    1
   185    54    57    1
   186    54    53    1
   187    57    58    1
   188   122   123    1
   189   101   103   ar
   190    75    76    2
   191    75    74    1
   192    76    77    1
   193    72    73    1
   194   127   125    1
   195    44    37   am
   196   104   103   ar
   197   124   125    2
   198   124   123    1
   199   125   126    1
   200    59    58    1
   201    59    60    1
   202    73    74    1
   203    38    37    2
   204    37    36    1
   205    60    61    1
   206    35    36    1
   207    36    39    1
   208    42    41   ar
   209    39    40    1
   210    41    40    1
   211    41    43   ar
