@<TRIPOS>MOLECULE
tmp/1liaA01.pdb
 124 117 0 0 0
SMALL
GASTEIGER

@<TRIPOS>ATOM
      1  N          2.7160   48.8260   35.1450 N.3    43  LYS43      -0.1231
      2  CA         1.6800   49.7800   34.8160 C.3    43  LYS43       0.1693
      3  C          0.3010   49.2200   34.9920 C.2    43  LYS43       0.2591
      4  O         -0.5530   49.9040   35.5350 O.2    43  LYS43      -0.2718
      5  CB         1.8040   50.2610   33.3740 C.3    43  LYS43       0.0285
      6  CG         2.1490   51.7370   33.2000 C.3    43  LYS43       0.0035
      7  CD         3.4590   52.1890   33.8800 C.3    43  LYS43       0.0206
      8  CE         3.6680   53.6980   33.6200 C.3    43  LYS43       0.1093
      9  NZ         2.6950   54.5780   34.2790 N.3    43  LYS43      -0.1314
     10  N          0.0210   47.9930   34.6030 N.am   44  LEU44      -0.1980
     11  CA        -1.2820   47.4360   34.8570 C.3    44  LEU44       0.1596
     12  C         -1.4380   47.0910   36.3330 C.2    44  LEU44       0.2287
     13  O         -2.5120   47.2440   36.8900 O.2    44  LEU44      -0.2864
     14  CB        -1.3730   46.2490   33.9490 C.3    44  LEU44       0.0297
     15  CG        -2.4570   45.2310   34.0560 C.3    44  LEU44       0.0022
     16  CD1       -3.8200   45.8740   33.8700 C.3    44  LEU44       0.0001
     17  CD2       -2.1960   44.1760   32.9750 C.3    44  LEU44       0.0001
     18  N         -2.2720   50.6640   38.0640 N.3    47  ASN47      -0.1240
     19  CA        -3.5760   51.2170   37.9090 C.3    47  ASN47       0.1653
     20  C         -4.6040   50.2890   37.2840 C.2    47  ASN47       0.2266
     21  O         -5.4220   50.6150   36.4280 O.2    47  ASN47      -0.2867
     22  CB        -3.3730   52.4820   37.1100 C.3    47  ASN47       0.1155
     23  CG        -4.5690   53.4320   37.1270 C.2    47  ASN47       0.2627
     24  OD1       -5.0660   53.8360   36.0780 O.2    47  ASN47      -0.2716
     25  ND2       -5.1110   53.8420   38.2780 N.am   47  ASN47      -0.0877
     26  N         -8.8950   50.9450   37.7480 N.3    50  ALA50      -0.1231
     27  CA        -9.2510   51.8950   36.7340 C.3    50  ALA50       0.1694
     28  C         -9.4700   51.1980   35.3960 C.2    50  ALA50       0.2591
     29  O        -10.5740   51.3560   34.8840 O.2    50  ALA50      -0.2718
     30  CB        -8.1720   52.9110   36.5560 C.3    50  ALA50       0.0304
     31  N         -8.5540   50.3650   34.8530 N.am   51  VAL51      -0.1980
     32  CA        -8.8140   49.7820   33.5260 C.3    51  VAL51       0.1595
     33  C         -9.8690   48.6840   33.5230 C.2    51  VAL51       0.2287
     34  O        -10.5940   48.5660   32.5550 O.2    51  VAL51      -0.2864
     35  CB        -7.4920   49.2110   32.8360 C.3    51  VAL51       0.0276
     36  CG1       -6.2880   50.1000   33.1920 C.3    51  VAL51       0.0022
     37  CG2       -7.2250   47.7710   33.2180 C.3    51  VAL51       0.0022
     38  N        -13.5110   50.4050   33.3640 N.3    54  GLU54      -0.1245
     39  CA       -13.6200   50.8960   32.0070 C.3    54  GLU54       0.1567
     40  C        -14.1330   49.7750   31.0770 C.2    54  GLU54       0.2260
     41  O        -14.9600   49.9780   30.1760 O.2    54  GLU54      -0.2867
     42  CB       -12.2440   51.2540   31.5350 C.3    54  GLU54       0.0388
     43  CG       -11.6710   52.5520   31.9970 C.3    54  GLU54       0.1160
     44  CD       -11.0100   53.1670   30.8100 C.2    54  GLU54       0.3649
     45  OE1       -9.9130   52.6680   30.3620 O.co2  54  GLU54      -0.2457
     46  OE2      -11.5580   54.1530   30.2450 O.co2  54  GLU54      -0.2457
     47  N        -10.3850   47.3150   26.3400 N.3   134  THR134     -0.1218
     48  CA        -9.1230   47.3770   27.0870 C.3   134  THR134      0.1862
     49  C         -7.8960   47.4040   26.1250 C.2   134  THR134      0.2287
     50  O         -6.9470   48.2010   26.2890 O.2   134  THR134     -0.2866
     51  CB        -9.0510   46.1510   28.0620 C.3   134  THR134      0.1770
     52  OG1       -9.8350   46.3710   29.2610 O.3   134  THR134     -0.2211
     53  CG2       -7.6080   45.9220   28.5180 C.3   134  THR134      0.0375
     54  N         -7.7610   48.3640   22.8690 N.3   136  ASP136     -0.1225
     55  CA        -7.7350   49.5680   22.0620 C.3   136  ASP136      0.1805
     56  C         -7.6880   50.9130   22.8030 C.2   136  ASP136      0.2598
     57  O         -7.4980   51.9910   22.2280 O.2   136  ASP136     -0.2718
     58  CB        -8.9400   49.4950   21.1260 C.3   136  ASP136      0.1424
     59  CG        -8.7950   48.5330   19.9560 C.2   136  ASP136      0.3668
     60  OD1       -7.7470   47.8530   19.8360 O.co2 136  ASP136     -0.2456
     61  OD2       -9.7480   48.4030   19.1680 O.co2 136  ASP136     -0.2456
     62  N         -7.7760   50.8840   24.1310 N.am  137  ARG137     -0.1966
     63  CA        -7.5960   52.1030   24.8950 C.3   137  ARG137      0.1729
     64  C         -6.1700   52.6430   24.8970 C.2   137  ARG137      0.2616
     65  O         -6.0000   53.8730   25.0040 O.2   137  ARG137     -0.2715
     66  CB        -8.0050   51.8930   26.3530 C.3   137  ARG137      0.0348
     67  CG        -9.3590   52.4990   26.6200 C.3   137  ARG137      0.0492
     68  CD        -9.2380   53.6070   27.6450 C.3   137  ARG137      0.2205
     69  NE        -9.5050   54.8910   27.0250 N.pl3 137  ARG137     -0.0865
     70  CZ       -10.0470   55.9560   27.6290 C.cat 137  ARG137      0.5346
     71  NH1      -10.0650   56.1370   28.9260 N.pl3 137  ARG137      0.1354
     72  NH2      -10.6280   56.8800   26.8930 N.pl3 137  ARG137      0.1354
     73  N         -5.2150   51.6840   24.7770 N.am  138  LEU138     -0.1963
     74  CA        -3.7940   51.8930   24.9630 C.3   138  LEU138      0.1728
     75  C         -3.2550   52.9560   24.0240 C.2   138  LEU138      0.2616
     76  O         -3.4470   52.8370   22.8110 O.2   138  LEU138     -0.2715
     77  CB        -3.0800   50.5540   24.7440 C.3   138  LEU138      0.0311
     78  CG        -1.6410   50.1270   25.1860 C.3   138  LEU138      0.0022
     79  CD1       -0.9580   49.4050   24.0190 C.3   138  LEU138      0.0001
     80  CD2       -0.7530   51.2930   25.5260 C.3   138  LEU138      0.0001
     81  N         -2.5690   53.9370   24.6300 N.am  139  CYS139     -0.1968
     82  CA        -1.9100   55.0590   23.9540 C.3   139  CYS139      0.1712
     83  C         -0.4280   54.9220   24.3230 C.2   139  CYS139      0.2296
     84  O          0.0150   55.0890   25.4460 O.2   139  CYS139     -0.2864
     85  CB        -2.5690   56.3820   24.4490 C.3   139  CYS139      0.0983
     86  SG        -3.1090   57.6130   23.2180 S.3   139  CYS139     -0.0798
     87  N          1.7450   57.7000   26.1550 N.3   142  ARG142     -0.1182
     88  CA         0.9440   58.0620   27.3370 C.3   142  ARG142      0.1910
     89  C          0.8640   57.0870   28.5130 C.2   142  ARG142      0.2634
     90  O          1.1350   57.4510   29.6710 O.2   142  ARG142     -0.2714
     91  CB        -0.5220   58.3450   26.9170 C.2   142  ARG142      0.0007
     92  CG        -1.2900   59.5820   27.3830 C.2   142  ARG142      0.0176
     93  CD        -2.8370   59.4920   27.2690 C.3   142  ARG142      0.2464
     94  NE        -3.3290   58.6030   28.2980 N.pl3 142  ARG142     -0.0815
     95  CZ        -3.9300   58.9390   29.4480 C.cat 142  ARG142      0.5349
     96  NH1       -4.1720   60.2060   29.7500 N.pl3 142  ARG142      0.1354
     97  NH2       -4.1540   57.9700   30.3660 N.pl3 142  ARG142      0.1354
     98  N          0.4530   55.8630   28.1640 N.am  143  ASP143     -0.1957
     99  CA         0.1240   54.8940   29.1740 C.3   143  ASP143      0.1840
    100  C          1.3920   54.1010   29.3630 C.2   143  ASP143      0.2621
    101  O          1.8090   53.9020   30.5140 O.2   143  ASP143     -0.2715
    102  CB        -1.1260   54.0770   28.6900 C.3   143  ASP143      0.1450
    103  CG        -2.4180   54.8460   28.2340 C.2   143  ASP143      0.3671
    104  OD1       -2.7560   55.9130   28.7290 O.co2 143  ASP143     -0.2456
    105  OD2       -3.1330   54.4020   27.3390 O.co2 143  ASP143     -0.2456
    106  N          2.0970   53.7080   28.3120 N.am  144  MET144     -0.1977
    107  CA         3.3840   53.0380   28.4960 C.3   144  MET144      0.1605
    108  C          4.2260   53.2410   27.2460 C.2   144  MET144      0.2287
    109  O          3.7770   53.9030   26.3110 O.2   144  MET144     -0.2864
    110  CB         3.1940   51.5270   28.7610 C.3   144  MET144      0.0413
    111  CG         2.5530   50.7010   27.6180 C.3   144  MET144      0.0598
    112  SD         1.7420   49.2000   28.1960 S.3   144  MET144     -0.1393
    113  CE         0.3170   49.7300   29.0970 C.3   144  MET144      0.0692
    114  N          1.4840   44.4520   26.0670 N.3   152  PHE152     -0.1241
    115  CA         0.0850   44.5980   26.4490 C.3   152  PHE152      0.1605
    116  C         -0.9070   44.2160   25.3420 C.2   152  PHE152      0.2264
    117  O         -1.7070   43.3050   25.5610 O.2   152  PHE152     -0.2867
    118  CB        -0.1530   46.0190   26.8570 C.3   152  PHE152      0.0534
    119  CG        -1.5050   46.2400   27.4720 C.ar  152  PHE152     -0.0203
    120  CD1       -1.7570   45.7270   28.7440 C.ar  152  PHE152     -0.0042
    121  CD2       -2.4680   46.9970   26.8200 C.ar  152  PHE152     -0.0042
    122  CE1       -2.9750   45.9880   29.3570 C.ar  152  PHE152     -0.0003
    123  CE2       -3.6840   47.2380   27.4460 C.ar  152  PHE152     -0.0003
    124  CZ        -3.9420   46.7400   28.7130 C.ar  152  PHE152     -0.0000
@<TRIPOS>BOND
     1    61    59   ar
     2    60    59   ar
     3    59    58    1
     4    58    55    1
     5    55    56    1
     6    55    54    1
     7    57    56    2
     8    56    62   am
     9    76    75    2
    10    86    85    1
    11    82    83    1
    12    82    85    1
    13    82    81    1
    14    79    78    1
    15    75    81   am
    16    75    74    1
    17    62    63    1
    18    83    84    2
    19    77    74    1
    20    77    78    1
    21    73    64   am
    22    73    74    1
    23    63    64    1
    24    63    66    1
    25    64    65    2
    26    78    80    1
    27   116   117    2
    28   116   115    1
    29   114   115    1
    30    49    50    2
    31    49    48    1
    32    87    88    1
    33   109   108    2
    34    47    48    1
    35    66    67    1
    36   115   118    1
    37    67    68    1
    38   121   123   ar
    39   121   119   ar
    40   118   119    1
    41    72    70    1
    42    91    88    1
    43    91    92    2
    44    69    70    2
    45    69    68    1
    46    48    51    1
    47   108   107    1
    48    93    92    1
    49    93    94    1
    50    88    89    1
    51   105   103   ar
    52   123   124   ar
    53   119   120   ar
    54   111   112    1
    55   111   110    1
    56    70    71    1
    57    51    53    1
    58    51    52    1
    59    98    89   am
    60    98    99    1
    61   112   113    1
    62   103   102    1
    63   103   104   ar
    64    94    95    2
    65   106   107    1
    66   106   100   am
    67   107   110    1
    68    89    90    2
    69   102    99    1
    70   124   122   ar
    71   120   122   ar
    72    99   100    1
    73   100   101    2
    74    95    96    1
    75    95    97    1
    76    41    40    2
    77    46    44   ar
    78    45    44   ar
    79    44    43    1
    80    40    39    1
    81    42    43    1
    82    42    39    1
    83    39    38    1
    84    34    33    2
    85    35    36    1
    86    35    37    1
    87    35    32    1
    88    17    15    1
    89     6     5    1
    90     6     7    1
    91     5     2    1
    92    33    32    1
    93    32    31    1
    94     8     7    1
    95     8     9    1
    96    16    15    1
    97    14    15    1
    98    14    11    1
    99    10    11    1
   100    10     3   am
   101     2     3    1
   102     2     1    1
   103    31    28   am
   104    11    12    1
   105    29    28    2
   106     3     4    2
   107    28    27    1
   108    24    23    2
   109    12    13    2
   110    21    20    2
   111    30    27    1
   112    27    26    1
   113    22    23    1
   114    22    19    1
   115    23    25   am
   116    20    19    1
   117    19    18    1
