@<TRIPOS>MOLECULE
tmp/1licA00.pdb
 205 190 0 0 0
SMALL
GASTEIGER

@<TRIPOS>ATOM
      1  N        -53.1060   66.7710    0.1140 N.3    16  PHE16      -0.1241
      2  CA       -52.7080   67.5160   -1.0720 C.3    16  PHE16       0.1605
      3  C        -53.7520   68.5330   -1.5160 C.2    16  PHE16       0.2264
      4  O        -53.4080   69.6670   -1.8650 O.2    16  PHE16      -0.2867
      5  CB       -52.3630   66.5660   -2.2180 C.3    16  PHE16       0.0534
      6  CG       -51.7350   67.2480   -3.3900 C.ar   16  PHE16      -0.0203
      7  CD1      -50.6330   68.0740   -3.2130 C.ar   16  PHE16      -0.0042
      8  CD2      -52.2620   67.0900   -4.6630 C.ar   16  PHE16      -0.0042
      9  CE1      -50.0630   68.7440   -4.2960 C.ar   16  PHE16      -0.0003
     10  CE2      -51.7040   67.7510   -5.7520 C.ar   16  PHE16      -0.0003
     11  CZ       -50.6020   68.5800   -5.5690 C.ar   16  PHE16      -0.0000
     12  N        -53.6100   71.5410    0.7040 N.3    19  TYR19      -0.1227
     13  CA       -52.4430   72.3660    0.4090 C.3    19  TYR19       0.1736
     14  C        -52.7550   73.2540   -0.7950 C.2    19  TYR19       0.2595
     15  O        -52.4750   74.4560   -0.7860 O.2    19  TYR19      -0.2718
     16  CB       -51.2320   71.4780    0.1100 C.3    19  TYR19       0.0548
     17  CG       -50.0430   72.2260   -0.4330 C.ar   19  TYR19      -0.0200
     18  CD1      -49.2220   72.9750    0.4060 C.ar   19  TYR19      -0.0009
     19  CD2      -49.7610   72.2180   -1.7980 C.ar   19  TYR19      -0.0009
     20  CE1      -48.1490   73.7090   -0.1060 C.ar   19  TYR19       0.0417
     21  CE2      -48.6940   72.9470   -2.3210 C.ar   19  TYR19       0.0417
     22  CZ       -47.8920   73.6920   -1.4690 C.ar   19  TYR19       0.1957
     23  OH       -46.8550   74.4370   -1.9900 O.3    19  TYR19      -0.2866
     24  N        -53.3090   72.6530   -1.8420 N.am   20  MET20      -0.1979
     25  CA       -53.6560   73.4010   -3.0430 C.3    20  MET20       0.1605
     26  C        -54.7080   74.4810   -2.7380 C.2    20  MET20       0.2287
     27  O        -54.7250   75.5500   -3.3640 O.2    20  MET20      -0.2864
     28  CB       -54.1370   72.4600   -4.1480 C.3    20  MET20       0.0413
     29  CG       -53.0140   71.6690   -4.8150 C.3    20  MET20       0.0598
     30  SD       -53.6040   70.6530   -6.1490 S.3    20  MET20      -0.1393
     31  CE       -54.7830   69.4760   -5.5230 C.3    20  MET20       0.0692
     32  N        -52.8410   77.4120   -1.2490 N.3    23  VAL23      -0.1245
     33  CA       -52.0590   78.0560   -2.2990 C.3    23  VAL23       0.1561
     34  C        -52.9600   78.9110   -3.1980 C.2    23  VAL23       0.2260
     35  O        -52.5090   79.8770   -3.8110 O.2    23  VAL23      -0.2867
     36  CB       -51.2750   77.0040   -3.1220 C.3    23  VAL23       0.0252
     37  CG1      -50.6240   77.6420   -4.3360 C.3    23  VAL23       0.0019
     38  CG2      -50.2070   76.3690   -2.2420 C.3    23  VAL23       0.0019
     39  N        -55.3580   77.3700   -5.5200 N.3    25  VAL25      -0.1245
     40  CA       -55.6830   76.6790   -6.7640 C.3    25  VAL25       0.1561
     41  C        -57.2020   76.4890   -6.9030 C.2    25  VAL25       0.2260
     42  O        -57.8900   76.1540   -5.9370 O.2    25  VAL25      -0.2867
     43  CB       -54.9580   75.3110   -6.8460 C.3    25  VAL25       0.0252
     44  CG1      -55.2760   74.6150   -8.1610 C.3    25  VAL25       0.0019
     45  CG2      -53.4470   75.5110   -6.7020 C.3    25  VAL25       0.0019
     46  N        -58.8540   72.7740  -11.4910 N.3    29  THR29      -0.1218
     47  CA       -57.4410   72.4270  -11.5010 C.3    29  THR29       0.1862
     48  C        -57.1220   71.4700  -10.3580 C.2    29  THR29       0.2287
     49  O        -56.3910   70.4980  -10.5490 O.2    29  THR29      -0.2866
     50  CB       -56.5560   73.6840  -11.4260 C.3    29  THR29       0.1770
     51  OG1      -56.8570   74.5320  -12.5420 O.3    29  THR29      -0.2211
     52  CG2      -55.0780   73.3080  -11.4800 C.3    29  THR29       0.0375
     53  N        -58.2850   68.0380  -11.4140 N.3    32  VAL32      -0.1231
     54  CA       -57.4070   67.4070  -12.3940 C.3    32  VAL32       0.1692
     55  C        -56.1390   66.9060  -11.6930 C.2    32  VAL32       0.2591
     56  O        -55.7220   65.7660  -11.8940 O.2    32  VAL32      -0.2718
     57  CB       -57.0010   68.3750  -13.5300 C.3    32  VAL32       0.0266
     58  CG1      -56.2490   67.6230  -14.6120 C.3    32  VAL32       0.0020
     59  CG2      -58.2190   69.0410  -14.1240 C.3    32  VAL32       0.0020
     60  N        -55.5650   67.7520  -10.8390 N.am   33  ALA33      -0.1980
     61  CA       -54.3480   67.4310  -10.0890 C.3    33  ALA33       0.1597
     62  C        -54.5160   66.2160   -9.1820 C.2    33  ALA33       0.2287
     63  O        -53.5860   65.4270   -9.0050 O.2    33  ALA33      -0.2864
     64  CB       -53.9180   68.6360   -9.2580 C.3    33  ALA33       0.0319
     65  N        -54.3600   62.9760  -11.1600 N.3    36  ALA36      -0.1245
     66  CA       -53.0340   62.7490  -11.7120 C.3    36  ALA36       0.1562
     67  C        -52.0980   62.0520  -10.7250 C.2    36  ALA36       0.2260
     68  O        -51.9870   62.4230   -9.5530 O.2    36  ALA36      -0.2867
     69  CB       -52.4220   64.0670  -12.1970 C.3    36  ALA36       0.0290
     70  N        -48.5940   61.6690  -11.0840 N.3    38  PRO38      -0.2116
     71  CA       -47.3720   62.0340  -11.8030 C.3    38  PRO38       0.1372
     72  C        -46.1510   61.1760  -11.5250 C.2    38  PRO38       0.2244
     73  O        -46.1030   60.4200  -10.5440 O.2    38  PRO38      -0.2868
     74  CB       -47.1260   63.4770  -11.3560 C.3    38  PRO38       0.0268
     75  CG       -48.4740   63.9510  -10.8810 C.3    38  PRO38       0.0207
     76  CD       -48.9840   62.7440  -10.1600 C.3    38  PRO38       0.0892
     77  N        -42.0340   61.5670  -11.2620 N.3    40  MET40      -0.1245
     78  CA       -41.0090   62.5840  -11.0790 C.3    40  MET40       0.1570
     79  C        -39.6790   62.0570  -11.6090 C.2    40  MET40       0.2261
     80  O        -39.2620   60.9520  -11.2670 O.2    40  MET40      -0.2867
     81  CB       -40.8710   62.9550   -9.6100 C.3    40  MET40       0.0387
     82  CG       -40.0790   64.2300   -9.3830 C.3    40  MET40       0.0595
     83  SD       -39.9420   64.6550   -7.6490 S.3    40  MET40      -0.1393
     84  CE       -41.6740   64.9020   -7.2150 C.3    40  MET40       0.0692
     85  N        -41.7620   66.7250  -13.9590 N.3    53  SER53      -0.1217
     86  CA       -42.9430   66.0310  -13.4810 C.3    53  SER53       0.1889
     87  C        -43.7790   65.7500  -14.7110 C.2    53  SER53       0.2288
     88  O        -44.0250   66.6520  -15.5180 O.2    53  SER53      -0.2866
     89  CB       -43.7160   66.9040  -12.5020 C.3    53  SER53       0.2089
     90  OG       -44.9080   66.2550  -12.0910 O.3    53  SER53      -0.2183
     91  N        -47.3450   64.0010  -16.3670 N.3    55  SER55      -0.1217
     92  CA       -48.6970   63.5150  -16.1720 C.3    55  SER55       0.1889
     93  C        -49.4020   63.6720  -17.5190 C.2    55  SER55       0.2288
     94  O        -48.9890   64.4710  -18.3570 O.2    55  SER55      -0.2866
     95  CB       -49.4190   64.2850  -15.0530 C.3    55  SER55       0.2089
     96  OG       -49.9630   65.5130  -15.4980 O.3    55  SER55      -0.2183
     97  N        -52.0440   65.0570  -18.1930 N.3    57  PHE57      -0.1227
     98  CA       -52.5880   66.3920  -18.3210 C.3    57  PHE57       0.1736
     99  C        -51.5910   67.5380  -18.4030 C.2    57  PHE57       0.2595
    100  O        -51.8490   68.5110  -19.1080 O.2    57  PHE57      -0.2718
    101  CB       -53.6220   66.6300  -17.2200 C.3    57  PHE57       0.0547
    102  CG       -54.7920   65.6750  -17.2820 C.ar   57  PHE57      -0.0202
    103  CD1      -55.6750   65.6980  -18.3680 C.ar   57  PHE57      -0.0042
    104  CD2      -54.9900   64.7260  -16.2800 C.ar   57  PHE57      -0.0042
    105  CE1      -56.7290   64.7840  -18.4560 C.ar   57  PHE57      -0.0003
    106  CE2      -56.0440   63.8080  -16.3590 C.ar   57  PHE57      -0.0003
    107  CZ       -56.9140   63.8400  -17.4500 C.ar   57  PHE57      -0.0000
    108  N        -50.4580   67.4360  -17.7060 N.am   58  LYS58      -0.1980
    109  CA       -49.4660   68.5080  -17.7440 C.3    58  LYS58       0.1596
    110  C        -48.0830   68.0540  -17.2890 C.2    58  LYS58       0.2287
    111  O        -47.9460   67.3450  -16.2940 O.2    58  LYS58      -0.2864
    112  CB       -49.9220   69.6740  -16.8650 C.3    58  LYS58       0.0298
    113  CG       -49.4870   71.0520  -17.3470 C.3    58  LYS58       0.0038
    114  CD       -49.8800   72.1110  -16.3230 C.3    58  LYS58       0.0206
    115  CE       -49.7780   73.5290  -16.8750 C.3    58  LYS58       0.1093
    116  NZ       -50.9320   73.8970  -17.7500 N.3    58  LYS58      -0.1314
    117  N        -45.3920   77.3870  -12.2720 N.3    74  THR74      -0.1203
    118  CA       -45.9480   76.1840  -11.6670 C.3    74  THR74       0.1994
    119  C        -47.0540   75.5500  -12.5110 C.2    74  THR74       0.2618
    120  O        -47.6010   76.1790  -13.4130 O.2    74  THR74      -0.2717
    121  CB       -46.4730   76.4730  -10.2510 C.3    74  THR74       0.1784
    122  OG1      -47.6020   77.3530  -10.3240 O.3    74  THR74      -0.2211
    123  CG2      -45.3890   77.1410   -9.4210 C.3    74  THR74       0.0376
    124  N        -47.3890   74.3090  -12.1900 N.am   75  ALA75      -0.1965
    125  CA       -48.4240   73.5700  -12.9030 C.3    75  ALA75       0.1728
    126  C        -49.7700   74.2890  -12.8580 C.2    75  ALA75       0.2616
    127  O        -50.5450   74.2190  -13.8030 O.2    75  ALA75      -0.2715
    128  CB       -48.5470   72.1770  -12.3320 C.3    75  ALA75       0.0334
    129  N        -50.0400   74.9860  -11.7600 N.am   76  ASP76      -0.1971
    130  CA       -51.2920   75.7280  -11.6120 C.3    76  ASP76       0.1709
    131  C        -51.1810   77.1590  -12.1530 C.2    76  ASP76       0.2293
    132  O        -52.0110   78.0200  -11.8510 O.2    76  ASP76      -0.2864
    133  CB       -51.7560   75.7180  -10.1530 C.3    76  ASP76       0.1436
    134  CG       -50.7540   76.3440   -9.2090 C.2    76  ASP76       0.3671
    135  OD1      -49.5960   75.8690   -9.1390 O.co2  76  ASP76      -0.2456
    136  OD2      -51.1390   77.3100   -8.5190 O.co2  76  ASP76      -0.2456
    137  N        -48.7470   79.7300  -11.6960 N.3    78  ARG78      -0.1245
    138  CA       -48.2820   80.8640  -10.9210 C.3    78  ARG78       0.1563
    139  C        -46.8670   81.1140  -11.4280 C.2    78  ARG78       0.2260
    140  O        -46.1690   80.1750  -11.7910 O.2    78  ARG78      -0.2867
    141  CB       -48.2020   80.5120   -9.4400 C.3    78  ARG78       0.0307
    142  CG       -49.5030   80.5350   -8.6870 C.3    78  ARG78       0.0489
    143  CD       -49.2800   79.9900   -7.2750 C.3    78  ARG78       0.2205
    144  NE       -48.9910   78.5560   -7.2990 N.pl3  78  ARG78      -0.0865
    145  CZ       -48.0370   77.9400   -6.6100 C.cat  78  ARG78       0.5346
    146  NH1      -47.2180   78.6140   -5.8090 N.pl3  78  ARG78       0.1354
    147  NH2      -47.9030   76.6270   -6.7440 N.pl3  78  ARG78       0.1354
    148  N        -40.6850   78.8990   -2.7010 N.3    95  GLN95      -0.1245
    149  CA       -41.2900   79.6170   -3.8230 C.3    95  GLN95       0.1566
    150  C        -41.9210   80.8790   -3.2630 C.2    95  GLN95       0.2260
    151  O        -42.6470   80.8200   -2.2750 O.2    95  GLN95      -0.2867
    152  CB       -42.3990   78.8080   -4.4890 C.3    95  GLN95       0.0367
    153  CG       -41.9710   77.5650   -5.2340 C.3    95  GLN95       0.0905
    154  CD       -43.1620   76.8830   -5.8760 C.2    95  GLN95       0.2608
    155  OE1      -44.2980   77.0450   -5.4310 O.2    95  GLN95      -0.2717
    156  NE2      -42.9140   76.1360   -6.9330 N.am   95  GLN95      -0.0878
    157  N        -41.1720   73.5350   -0.1830 N.3   104  ILE104     -0.1245
    158  CA       -41.3150   72.1800   -0.7010 C.3   104  ILE104      0.1561
    159  C        -39.9950   71.4590   -0.4290 C.2   104  ILE104      0.2260
    160  O        -38.9420   71.8700   -0.9280 O.2   104  ILE104     -0.2867
    161  CB       -41.6000   72.1910   -2.2260 C.3   104  ILE104      0.0252
    162  CG1      -42.8850   72.9830   -2.5060 C.3   104  ILE104      0.0019
    163  CG2      -41.7290   70.7740   -2.7510 C.3   104  ILE104      0.0019
    164  CD1      -43.1280   73.2950   -3.9540 C.3   104  ILE104      0.0001
    165  N        -37.8210   67.8910   -0.5640 N.3   106  ARG106     -0.1245
    166  CA       -37.7430   66.5870   -1.2050 C.3   106  ARG106      0.1563
    167  C        -36.6410   65.8550   -0.4650 C.2   106  ARG106      0.2260
    168  O        -35.5010   66.3260   -0.3950 O.2   106  ARG106     -0.2867
    169  CB       -37.4080   66.7290   -2.6850 C.3   106  ARG106      0.0307
    170  CG       -38.4790   67.4840   -3.4680 C.3   106  ARG106      0.0489
    171  CD       -38.0950   67.6820   -4.9230 C.3   106  ARG106      0.2205
    172  NE       -39.1630   68.3210   -5.6890 N.pl3 106  ARG106     -0.0865
    173  CZ       -39.3070   69.6370   -5.8210 C.cat 106  ARG106      0.5346
    174  NH1      -38.4480   70.4640   -5.2510 N.pl3 106  ARG106      0.1354
    175  NH2      -40.3080   70.1290   -6.5350 N.pl3 106  ARG106      0.1354
    176  N        -41.9780   63.9580   -0.5390 N.3   115  VAL115     -0.1245
    177  CA       -42.1160   65.3740   -0.8460 C.3   115  VAL115      0.1561
    178  C        -43.0900   65.9690    0.1610 C.2   115  VAL115      0.2260
    179  O        -44.2030   65.4660    0.3250 O.2   115  VAL115     -0.2867
    180  CB       -42.6680   65.5910   -2.2710 C.3   115  VAL115      0.0252
    181  CG1      -42.7240   67.0730   -2.5970 C.3   115  VAL115      0.0019
    182  CG2      -41.8000   64.8770   -3.2710 C.3   115  VAL115      0.0019
    183  N        -46.3320   63.6090    0.0770 N.3   125  ARG125     -0.1245
    184  CA       -46.5030   62.7100   -1.0550 C.3   125  ARG125      0.1563
    185  C        -45.3100   61.7750   -1.1250 C.2   125  ARG125      0.2260
    186  O        -44.1630   62.2250   -1.1020 O.2   125  ARG125     -0.2867
    187  CB       -46.6770   63.5060   -2.3470 C.3   125  ARG125      0.0307
    188  CG       -48.1070   64.0000   -2.4910 C.3   125  ARG125      0.0489
    189  CD       -48.2160   65.2260   -3.3550 C.3   125  ARG125      0.2205
    190  NE       -48.2660   64.9370   -4.7830 N.pl3 125  ARG125     -0.0865
    191  CZ       -49.3530   64.5200   -5.4350 C.cat 125  ARG125      0.5346
    192  NH1      -50.4980   64.3090   -4.7910 N.pl3 125  ARG125      0.1354
    193  NH2      -49.3200   64.4100   -6.7590 N.pl3 125  ARG125      0.1354
    194  N        -43.1400   58.7300   -3.0200 N.3   127  TYR127     -0.1241
    195  CA       -42.8160   58.1600   -4.3190 C.3   127  TYR127      0.1605
    196  C        -41.8910   56.9620   -4.1590 C.2   127  TYR127      0.2264
    197  O        -41.1040   56.8980   -3.2140 O.2   127  TYR127     -0.2867
    198  CB       -42.0590   59.1840   -5.1850 C.3   127  TYR127      0.0534
    199  CG       -42.8780   60.3570   -5.6730 C.ar  127  TYR127     -0.0201
    200  CD1      -43.2620   61.3860   -4.8040 C.ar  127  TYR127     -0.0009
    201  CD2      -43.2710   60.4400   -7.0070 C.ar  127  TYR127     -0.0009
    202  CE1      -44.0270   62.4600   -5.2550 C.ar  127  TYR127      0.0417
    203  CE2      -44.0330   61.5030   -7.4660 C.ar  127  TYR127      0.0417
    204  CZ       -44.4040   62.5130   -6.5890 C.ar  127  TYR127      0.1957
    205  OH       -45.1500   63.5600   -7.0780 O.3   127  TYR127     -0.2866
@<TRIPOS>BOND
     1   100    99    2
     2   105   103   ar
     3   105   107   ar
     4    99    98    1
     5    99   108   am
     6   103   102   ar
     7    94    93    2
     8    98    97    1
     9    98   101    1
    10   116   115    1
    11   109   108    1
    12   109   110    1
    13   109   112    1
    14    93    92    1
    15   107   106   ar
    16   113   112    1
    17   113   114    1
    18   110   111    2
    19   102   101    1
    20   102   104   ar
    21   115   114    1
    22    91    92    1
    23   106   104   ar
    24    92    95    1
    25    88    87    2
    26    96    95    1
    27    87    86    1
    28    58    57    1
    29    59    57    1
    30    85    86    1
    31   127   126    2
    32    57    54    1
    33    86    89    1
    34   120   119    2
    35   125   126    1
    36   125   128    1
    37   125   124    1
    38   126   129   am
    39    51    50    1
    40   119   124   am
    41   119   118    1
    42    89    90    1
    43    54    55    1
    44    54    53    1
    45   117   118    1
    46    69    66    1
    47   131   132    2
    48   131   130    1
    49    56    55    2
    50    71    72    1
    51    71    74    1
    52    71    70    1
    53   140   139    2
    54   129   130    1
    55    66    65    1
    56    66    67    1
    57   137   138    1
    58    55    60   am
    59   118   121    1
    60   130   133    1
    61    79    80    2
    62    79    78    1
    63    72    73    2
    64    47    46    1
    65    47    50    1
    66    47    48    1
    67    52    50    1
    68   139   138    1
    69    74    75    1
    70    77    78    1
    71    70    76    1
    72    78    81    1
    73   138   141    1
    74    75    76    1
    75    60    61    1
    76    67    68    2
    77    49    48    2
    78   122   121    1
    79   121   123    1
    80   133   134    1
    81    61    64    1
    82    61    62    1
    83    81    82    1
    84   141   142    1
    85    82    83    1
    86   134   135   ar
    87   134   136   ar
    88    62    63    2
    89   142   143    1
    90    44    43    1
    91    83    84    1
    92   203   201   ar
    93   203   204   ar
    94   144   143    1
    95   144   145    2
    96   205   204    1
    97   201   199   ar
    98   156   154   am
    99    41    40    1
   100    41    42    2
   101    43    40    1
   102    43    45    1
   103    40    39    1
   104   193   191    1
   105   147   145    1
   106   145   146    1
   107   204   202   ar
   108   175   173    1
   109    30    31    1
   110    30    29    1
   111   154   155    2
   112   154   153    1
   113   173   172    2
   114   173   174    1
   115    10    11   ar
   116    10     8   ar
   117   172   171    1
   118   199   198    1
   119   199   200   ar
   120    11     9   ar
   121   191   192    1
   122   191   190    2
   123   202   200   ar
   124   153   152    1
   125   198   195    1
   126   171   170    1
   127    29    28    1
   128   190   189    1
   129     8     6   ar
   130   152   149    1
   131    37    36    1
   132   195   196    1
   133   195   194    1
   134     9     7   ar
   135   196   197    2
   136    28    25    1
   137   164   162    1
   138   149   150    1
   139   149   148    1
   140    35    34    2
   141   170   169    1
   142     6     7   ar
   143     6     5    1
   144    27    26    2
   145   189   188    1
   146   182   180    1
   147   150   151    2
   148    34    33    1
   149    36    33    1
   150    36    38    1
   151    25    26    1
   152    25    24    1
   153   163   161    1
   154   169   166    1
   155   181   180    1
   156   162   161    1
   157   188   187    1
   158   187   184    1
   159    21    19   ar
   160    21    22   ar
   161    33    32    1
   162   180   177    1
   163   161   158    1
   164     5     2    1
   165    23    22    1
   166     4     3    2
   167    24    14   am
   168    19    17   ar
   169     3     2    1
   170    22    20   ar
   171   166   165    1
   172   166   167    1
   173   185   186    2
   174   185   184    1
   175     2     1    1
   176   184   183    1
   177   160   159    2
   178   177   176    1
   179   177   178    1
   180    14    15    2
   181    14    13    1
   182   158   159    1
   183   158   157    1
   184   167   168    2
   185    17    16    1
   186    17    18   ar
   187    20    18   ar
   188    16    13    1
   189   178   179    2
   190    13    12    1
