@<TRIPOS>MOLECULE
tmp/1lijA00.pdb
 179 163 0 0 0
SMALL
GASTEIGER

@<TRIPOS>ATOM
      1  N        135.7170   32.3380   -3.5230 N.3    10  ASN10      -0.1240
      2  CA       134.4430   32.2660   -4.2120 C.3    10  ASN10       0.1653
      3  C        133.6770   31.0590   -3.6630 C.2    10  ASN10       0.2266
      4  O        134.0260   29.9260   -3.9840 O.2    10  ASN10      -0.2867
      5  CB       134.7560   32.0030   -5.7010 C.3    10  ASN10       0.1155
      6  CG       135.5280   33.1480   -6.3640 C.2    10  ASN10       0.2627
      7  OD1      135.4760   34.3030   -5.9200 O.2    10  ASN10      -0.2716
      8  ND2      136.2190   32.8290   -7.4440 N.am   10  ASN10      -0.0877
      9  N        131.2880   28.3130   -3.7410 N.3    12  ILE12      -0.1245
     10  CA       130.5670   27.7130   -4.8440 C.3    12  ILE12       0.1561
     11  C        130.0490   26.3310   -4.5020 C.2    12  ILE12       0.2260
     12  O        130.5220   25.6850   -3.5630 O.2    12  ILE12      -0.2867
     13  CB       131.6680   27.5070   -5.9500 C.3    12  ILE12       0.0252
     14  CG1      131.9220   28.7530   -6.7580 C.3    12  ILE12       0.0019
     15  CG2      131.3870   26.3520   -6.8840 C.3    12  ILE12       0.0019
     16  CD1      133.1750   28.5540   -7.5940 C.3    12  ILE12       0.0001
     17  N        129.5680   22.5060   -5.8040 N.3    14  ASP14      -0.1239
     18  CA       130.0840   21.6490   -6.8540 C.3    14  ASP14       0.1674
     19  C        129.0810   20.5470   -7.1880 C.2    14  ASP14       0.2266
     20  O        128.4400   20.0000   -6.2870 O.2    14  ASP14      -0.2867
     21  CB       131.2820   20.8290   -6.3100 C.3    14  ASP14       0.1410
     22  CG       132.5900   21.6200   -6.2600 C.2    14  ASP14       0.3668
     23  OD1      132.5670   22.7250   -6.7930 O.co2  14  ASP14      -0.2456
     24  OD2      133.6150   21.1340   -5.7250 O.co2  14  ASP14      -0.2456
     25  N        140.5410   23.7520  -16.1150 N.3    34  ALA34      -0.1231
     26  CA       139.7930   24.4950  -15.1150 C.3    34  ALA34       0.1694
     27  C        139.4400   25.8290  -15.7660 C.2    34  ALA34       0.2593
     28  O        140.3260   26.6230  -16.0870 O.2    34  ALA34      -0.2718
     29  CB       140.5560   24.6360  -13.7950 C.3    34  ALA34       0.0304
     30  N        138.1450   26.0590  -15.9970 N.am   35  THR35      -0.1939
     31  CA       137.7140   27.2920  -16.6340 C.3    35  THR35       0.2028
     32  C        136.3500   27.7850  -16.1680 C.2    35  THR35       0.2642
     33  O        135.6430   27.1090  -15.4180 O.2    35  THR35      -0.2714
     34  CB       137.5190   27.0230  -18.1650 C.3    35  THR35       0.1808
     35  OG1      136.5350   25.9930  -18.3600 O.3    35  THR35      -0.2208
     36  CG2      138.8090   26.5680  -18.7860 C.3    35  THR35       0.0379
     37  N        136.0270   28.9960  -16.6320 N.am   36  LEU36      -0.1977
     38  CA       134.7640   29.6630  -16.3520 C.3    36  LEU36       0.1596
     39  C        133.8920   29.3200  -17.5450 C.2    36  LEU36       0.2287
     40  O        134.3500   29.3690  -18.6820 O.2    36  LEU36      -0.2864
     41  CB       134.9510   31.1560  -16.2060 C.3    36  LEU36       0.0297
     42  CG       135.8920   31.5460  -15.0860 C.3    36  LEU36       0.0022
     43  CD1      135.9990   33.0480  -15.0110 C.3    36  LEU36       0.0001
     44  CD2      135.4080   30.9950  -13.7670 C.3    36  LEU36       0.0001
     45  N        131.8630   23.5900   -2.6010 N.3    58  GLY58      -0.1210
     46  CA       133.1270   23.6250   -3.3130 C.3    58  GLY58       0.1956
     47  C        133.7970   24.9730   -3.0870 C.2    58  GLY58       0.2612
     48  O        133.6110   25.6110   -2.0530 O.2    58  GLY58      -0.2717
     49  N        134.5540   25.4250   -4.0600 N.am   59  GLY59      -0.1942
     50  CA       135.2330   26.6920   -3.9020 C.3    59  GLY59       0.2014
     51  C        136.6030   26.3400   -3.3660 C.2    59  GLY59       0.2640
     52  O        136.7270   25.8020   -2.2730 O.2    59  GLY59      -0.2714
     53  N        137.6260   26.6100   -4.1600 N.am   60  SER60      -0.1935
     54  CA       139.0060   26.2930   -3.7950 C.3    60  SER60       0.2055
     55  C        139.4350   26.7340   -2.4040 C.2    60  SER60       0.2642
     56  O        139.8060   25.9090   -1.5690 O.2    60  SER60      -0.2714
     57  CB       139.9440   26.8680   -4.8640 C.3    60  SER60       0.2130
     58  OG       141.2560   26.4170   -4.6070 O.3    60  SER60      -0.2179
     59  N        139.4210   28.0430   -2.1640 N.am   61  ALA61      -0.1977
     60  CA       139.8360   28.5610   -0.8670 C.3    61  ALA61       0.1597
     61  C        138.9420   28.0220    0.2420 C.2    61  ALA61       0.2287
     62  O        139.3880   27.7470    1.3560 O.2    61  ALA61      -0.2864
     63  CB       139.8160   30.0760   -0.8860 C.3    61  ALA61       0.0319
     64  N        137.4950   25.1130    0.2940 N.3    63  ASN63      -0.1240
     65  CA       137.8950   23.7540    0.6130 C.3    63  ASN63       0.1653
     66  C        139.1090   23.8060    1.5460 C.2    63  ASN63       0.2266
     67  O        139.1880   23.0990    2.5540 O.2    63  ASN63      -0.2867
     68  CB       138.3480   23.0440   -0.6910 C.3    63  ASN63       0.1155
     69  CG       137.1750   22.6250   -1.5740 C.2    63  ASN63       0.2627
     70  OD1      136.0760   22.4880   -1.0740 O.2    63  ASN63      -0.2716
     71  ND2      137.4050   22.4300   -2.8710 N.am   63  ASN63      -0.0877
     72  N        129.8950   24.8690   -9.7980 N.3   117  CYS117     -0.1235
     73  CA       130.9790   24.3490  -10.6010 C.3   117  CYS117      0.1677
     74  C        130.7010   22.9110  -10.9850 C.2   117  CYS117      0.2270
     75  O        130.3540   22.0920  -10.1390 O.2   117  CYS117     -0.2867
     76  CB       132.2430   24.3030   -9.7320 C.3   117  CYS117      0.0956
     77  SG       133.6890   23.5520  -10.6120 S.3   117  CYS117     -0.0801
     78  N        132.0700   19.4940  -11.7360 N.3   119  VAL119     -0.1245
     79  CA       133.3070   18.7380  -11.5620 C.3   119  VAL119      0.1561
     80  C        133.1130   17.4640  -12.3560 C.2   119  VAL119      0.2260
     81  O        132.3920   16.5590  -11.9280 O.2   119  VAL119     -0.2867
     82  CB       133.5160   18.3880  -10.0740 C.3   119  VAL119      0.0252
     83  CG1      134.7670   17.5340   -9.8690 C.3   119  VAL119      0.0019
     84  CG2      133.4830   19.6450   -9.2070 C.3   119  VAL119      0.0019
     85  N        139.9650   15.2110  -13.3260 N.3   126  ARG126     -0.1245
     86  CA       138.8470   16.1090  -13.1300 C.3   126  ARG126      0.1563
     87  C        138.9430   17.3280  -14.0310 C.2   126  ARG126      0.2260
     88  O        140.0280   17.8540  -14.2950 O.2   126  ARG126     -0.2867
     89  CB       138.7980   16.5870  -11.6590 C.3   126  ARG126      0.0307
     90  CG       139.3730   18.0070  -11.3270 C.3   126  ARG126      0.0489
     91  CD       140.8700   17.9330  -10.9870 C.3   126  ARG126      0.2205
     92  NE       141.5050   19.2260  -10.6700 N.pl3 126  ARG126     -0.0865
     93  CZ       141.7690   20.1950  -11.5520 C.cat 126  ARG126      0.5346
     94  NH1      141.4370   20.0290  -12.8280 N.pl3 126  ARG126      0.1354
     95  NH2      142.3500   21.3260  -11.1770 N.pl3 126  ARG126      0.1354
     96  N        137.0560   21.0820  -14.4140 N.3   128  LEU128     -0.1245
     97  CA       136.2260   22.0500  -13.7240 C.3   128  LEU128      0.1561
     98  C        135.7050   23.1390  -14.6480 C.2   128  LEU128      0.2260
     99  O        136.4530   23.7280  -15.4220 O.2   128  LEU128     -0.2867
    100  CB       137.0970   22.7060  -12.6900 C.3   128  LEU128      0.0270
    101  CG       137.3960   21.9790  -11.3850 C.3   128  LEU128      0.0019
    102  CD1      137.0220   20.5580  -11.4130 C.3   128  LEU128      0.0001
    103  CD2      138.7940   22.1910  -10.9070 C.3   128  LEU128      0.0001
    104  N        133.1420   26.4000  -14.0890 N.3   130  THR130     -0.1218
    105  CA       132.3070   27.1320  -13.1560 C.3   130  THR130      0.1862
    106  C        131.5950   28.3590  -13.6980 C.2   130  THR130      0.2287
    107  O        132.0680   29.0390  -14.6090 O.2   130  THR130     -0.2866
    108  CB       133.3510   27.6950  -12.1890 C.3   130  THR130      0.1770
    109  OG1      133.9880   26.5960  -11.5390 O.3   130  THR130     -0.2211
    110  CG2      132.7930   28.6430  -11.1620 C.3   130  THR130      0.0375
    111  N        130.4330   31.6090  -12.0450 N.3   132  LEU132     -0.1245
    112  CA       130.5850   32.3350  -10.8070 C.3   132  LEU132      0.1561
    113  C        129.3240   32.9170  -10.1920 C.2   132  LEU132      0.2260
    114  O        129.1650   32.8860   -8.9670 O.2   132  LEU132     -0.2867
    115  CB       131.7040   33.3480  -11.0030 C.3   132  LEU132      0.0270
    116  CG       133.1440   32.8490  -10.9660 C.3   132  LEU132      0.0019
    117  CD1      134.0530   34.0000  -11.3200 C.3   132  LEU132      0.0001
    118  CD2      133.4980   32.2370   -9.6140 C.3   132  LEU132      0.0001
    119  N        143.0110   33.1430   -3.1630 N.3   157  THR157     -0.1218
    120  CA       143.2870   32.3920   -4.3620 C.3   157  THR157      0.1862
    121  C        143.2790   33.3750   -5.5100 C.2   157  THR157      0.2287
    122  O        142.6450   34.4360   -5.4370 O.2   157  THR157     -0.2866
    123  CB       142.2320   31.3760   -4.6930 C.3   157  THR157      0.1770
    124  OG1      140.9590   32.0380   -4.6270 O.3   157  THR157     -0.2211
    125  CG2      142.3000   30.2350   -3.7020 C.3   157  THR157      0.0375
    126  N        141.7930   32.9210   -8.0000 N.3   159  TYR159     -0.1241
    127  CA       140.4450   32.8430   -8.5550 C.3   159  TYR159      0.1605
    128  C        139.6440   34.0750   -8.1350 C.2   159  TYR159      0.2264
    129  O        138.7240   34.4980   -8.8300 O.2   159  TYR159     -0.2867
    130  CB       139.7320   31.6080   -7.9900 C.3   159  TYR159      0.0534
    131  CG       140.0030   30.2680   -8.6800 C.ar  159  TYR159     -0.0201
    132  CD1      140.1750   29.1100   -7.9100 C.ar  159  TYR159     -0.0009
    133  CD2      140.0370   30.1480  -10.0620 C.ar  159  TYR159     -0.0009
    134  CE1      140.3970   27.8780   -8.5020 C.ar  159  TYR159      0.0417
    135  CE2      140.2540   28.9100  -10.6620 C.ar  159  TYR159      0.0417
    136  CZ       140.4320   27.7640   -9.8610 C.ar  159  TYR159      0.1957
    137  OH       140.6670   26.5070  -10.3990 O.3   159  TYR159     -0.2866
    138  N        138.9620   37.5670  -10.3750 N.3   162  THR162     -0.1218
    139  CA       137.8840   37.7610  -11.3380 C.3   162  THR162      0.1862
    140  C        136.8430   38.7560  -10.8420 C.2   162  THR162      0.2287
    141  O        136.3200   39.5460  -11.6270 O.2   162  THR162     -0.2866
    142  CB       137.1870   36.4650  -11.6910 C.3   162  THR162      0.1770
    143  OG1      138.1710   35.5310  -12.1530 O.3   162  THR162     -0.2211
    144  CG2      136.1350   36.6890  -12.7920 C.3   162  THR162      0.0375
    145  N        144.4450   30.0770  -16.4420 N.3   191  PHE191     -0.1241
    146  CA       143.7120   31.2660  -16.8550 C.3   191  PHE191      0.1605
    147  C        143.9540   32.4690  -15.9470 C.2   191  PHE191      0.2264
    148  O        144.0130   33.6060  -16.4150 O.2   191  PHE191     -0.2867
    149  CB       142.2570   31.0150  -17.2300 C.3   191  PHE191      0.0534
    150  CG       141.3400   31.0240  -16.0730 C.ar  191  PHE191     -0.0203
    151  CD1      140.8800   32.2240  -15.5560 C.ar  191  PHE191     -0.0042
    152  CD2      140.9310   29.8420  -15.5010 C.ar  191  PHE191     -0.0042
    153  CE1      140.0130   32.2470  -14.4880 C.ar  191  PHE191     -0.0003
    154  CE2      140.0740   29.8620  -14.4310 C.ar  191  PHE191     -0.0003
    155  CZ       139.6130   31.0590  -13.9270 C.ar  191  PHE191     -0.0000
    156  N        140.1220   15.5490   -7.8550 N.3   286  ASN286     -0.1225
    157  CA       139.4860   16.8100   -7.4980 C.3   286  ASN286      0.1785
    158  C        139.8270   17.2690   -6.0820 C.2   286  ASN286      0.2597
    159  O        139.6220   16.5360   -5.1200 O.2   286  ASN286     -0.2718
    160  CB       137.9720   16.7560   -7.5920 C.3   286  ASN286      0.1169
    161  CG       137.3520   18.0950   -7.3040 C.2   286  ASN286      0.2627
    162  OD1      136.4890   18.2440   -6.4490 O.2   286  ASN286     -0.2716
    163  ND2      137.7710   19.0850   -8.0560 N.am  286  ASN286     -0.0877
    164  N        140.3400   18.4880   -5.9580 N.am  287  GLY287     -0.1957
    165  CA       140.6790   19.0710   -4.6590 C.3   287  GLY287      0.1869
    166  C        142.0140   18.6570   -4.0500 C.2   287  GLY287      0.2309
    167  O        142.2770   18.9980   -2.8990 O.2   287  GLY287     -0.2863
    168  N        145.0620   19.7340   -4.6780 N.3   289  GLY289     -0.1210
    169  CA       145.7900   20.9700   -4.3810 C.3   289  GLY289      0.1956
    170  C        145.2000   21.7100   -3.1880 C.2   289  GLY289      0.2611
    171  O        145.9270   22.2030   -2.3320 O.2   289  GLY289     -0.2717
    172  N        143.8750   21.7970   -3.1390 N.am  290  ASP290     -0.1973
    173  CA       143.2170   22.4950   -2.0440 C.3   290  ASP290      0.1709
    174  C        143.5120   21.8340   -0.7140 C.2   290  ASP290      0.2293
    175  O        143.7680   22.5120    0.2830 O.2   290  ASP290     -0.2864
    176  CB       141.6980   22.5420   -2.2300 C.3   290  ASP290      0.1436
    177  CG       141.2740   23.3250   -3.4380 C.2   290  ASP290      0.3671
    178  OD1      142.0420   24.1720   -3.9380 O.co2 290  ASP290     -0.2456
    179  OD2      140.1360   23.0580   -3.9050 O.co2 290  ASP290     -0.2456
@<TRIPOS>BOND
     1    36    34    1
     2    40    39    2
     3    35    34    1
     4    34    31    1
     5    39    38    1
     6   149   146    1
     7   149   150    1
     8   146   145    1
     9   146   147    1
    10    31    32    1
    11    31    30    1
    12    37    38    1
    13    37    32   am
    14   148   147    2
    15    38    41    1
    16    41    42    1
    17    32    33    2
    18    25    26    1
    19    28    27    2
    20   150   151   ar
    21   150   152   ar
    22    30    27   am
    23    27    26    1
    24   151   153   ar
    25   152   154   ar
    26    99    98    2
    27    26    29    1
    28    42    43    1
    29    42    44    1
    30    98    97    1
    31   107   106    2
    32   153   155   ar
    33   154   155   ar
    34    96    97    1
    35    88    87    2
    36   104   105    1
    37    87    86    1
    38    97   100    1
    39   106   105    1
    40    85    86    1
    41   105   108    1
    42    86    89    1
    43    94    93    1
    44   144   142    1
    45   100   101    1
    46    80    81    2
    47    80    79    1
    48   108   109    1
    49   108   110    1
    50   143   142    1
    51   111   112    1
    52    78    79    1
    53   142   139    1
    54    89    90    1
    55   141   140    2
    56    79    82    1
    57    93    95    1
    58    93    92    2
    59   102   101    1
    60   101   103    1
    61   139   140    1
    62   139   138    1
    63    90    91    1
    64   117   116    1
    65   115   116    1
    66   115   112    1
    67    91    92    1
    68    74    73    1
    69    74    75    2
    70   116   118    1
    71   112   113    1
    72   135   133   ar
    73   135   136   ar
    74    77    76    1
    75    73    72    1
    76    73    76    1
    77   137   136    1
    78   113   114    2
    79    82    83    1
    80    82    84    1
    81   133   131   ar
    82   136   134   ar
    83   129   128    2
    84   131   130    1
    85   131   132   ar
    86   127   128    1
    87   127   126    1
    88   127   130    1
    89   134   132   ar
    90   163   161   am
    91   156   157    1
    92    16    14    1
    93   160   157    1
    94   160   161    1
    95   157   158    1
    96     8     6   am
    97   161   162    2
    98    19    18    1
    99    19    20    2
   100    15    13    1
   101    18    21    1
   102    18    17    1
   103    23    22   ar
   104    14    13    1
   105     6     7    2
   106     6     5    1
   107    21    22    1
   108    22    24   ar
   109   158   164   am
   110   158   159    2
   111   164   165    1
   112    13    10    1
   113     5     2    1
   114   121   122    2
   115   121   120    1
   116    57    58    1
   117    57    54    1
   118    10    11    1
   119    10     9    1
   120   123   124    1
   121   123   120    1
   122   123   125    1
   123   168   169    1
   124   165   166    1
   125    11    12    2
   126   169   170    1
   127   120   119    1
   128     2     3    1
   129     2     1    1
   130    53    54    1
   131    53    51   am
   132    49    50    1
   133    49    47   am
   134   166   167    2
   135     4     3    2
   136   178   177   ar
   137   179   177   ar
   138    50    51    1
   139    54    55    1
   140   177   176    1
   141    51    52    2
   142    46    47    1
   143    46    45    1
   144   170   172   am
   145   170   171    2
   146   172   173    1
   147    47    48    2
   148    71    69   am
   149    55    59   am
   150    55    56    2
   151   176   173    1
   152    59    60    1
   153   173   174    1
   154    69    70    2
   155    69    68    1
   156    63    60    1
   157    60    61    1
   158   174   175    2
   159    68    65    1
   160    61    62    2
   161    64    65    1
   162    65    66    1
   163    66    67    2
