@<TRIPOS>MOLECULE
tmp/1likA00.pdb
 174 159 0 0 0
SMALL
GASTEIGER

@<TRIPOS>ATOM
      1  N        136.2000   32.3250   -3.4960 N.3    10  ASN10      -0.1240
      2  CA       134.9240   32.2560   -4.1870 C.3    10  ASN10       0.1653
      3  C        134.0950   31.0690   -3.7000 C.2    10  ASN10       0.2266
      4  O        134.3330   29.9500   -4.1380 O.2    10  ASN10      -0.2867
      5  CB       135.2470   31.9590   -5.6690 C.3    10  ASN10       0.1155
      6  CG       135.9540   33.1420   -6.3810 C.2    10  ASN10       0.2627
      7  OD1      135.8430   34.2690   -5.9110 O.2    10  ASN10      -0.2716
      8  ND2      136.6660   32.8840   -7.5100 N.am   10  ASN10      -0.0877
      9  N        131.7070   28.4630   -3.9660 N.3    12  ILE12      -0.1245
     10  CA       130.9560   27.8950   -5.0800 C.3    12  ILE12       0.1561
     11  C        130.4150   26.5010   -4.7560 C.2    12  ILE12       0.2260
     12  O        130.9230   25.8150   -3.8740 O.2    12  ILE12      -0.2867
     13  CB       132.0130   27.8220   -6.2420 C.3    12  ILE12       0.0252
     14  CG1      132.1020   29.1380   -7.0030 C.3    12  ILE12       0.0019
     15  CG2      132.0370   26.4860   -6.9990 C.3    12  ILE12       0.0019
     16  CD1      133.4830   29.3710   -7.5550 C.3    12  ILE12       0.0001
     17  N        129.8050   22.6370   -5.7990 N.3    14  ASP14      -0.1239
     18  CA       130.3240   21.6110   -6.6860 C.3    14  ASP14       0.1674
     19  C        129.3360   20.5300   -7.0830 C.2    14  ASP14       0.2266
     20  O        128.6010   19.9730   -6.2620 O.2    14  ASP14      -0.2867
     21  CB       131.5250   20.9230   -6.1090 C.3    14  ASP14       0.1410
     22  CG       132.7790   21.7280   -6.3140 C.2    14  ASP14       0.3668
     23  OD1      132.6890   22.8190   -6.9110 O.co2  14  ASP14      -0.2456
     24  OD2      133.8460   21.2780   -5.8890 O.co2  14  ASP14      -0.2456
     25  N        140.8880   23.6800  -16.4130 N.3    34  ALA34      -0.1231
     26  CA       140.0910   24.5010  -15.4820 C.3    34  ALA34       0.1694
     27  C        139.7530   25.8400  -16.1600 C.2    34  ALA34       0.2593
     28  O        140.6440   26.5790  -16.5860 O.2    34  ALA34      -0.2718
     29  CB       140.6710   24.6670  -14.0770 C.3    34  ALA34       0.0304
     30  N        138.4660   26.1560  -16.2790 N.am   35  THR35      -0.1939
     31  CA       138.0990   27.4030  -16.9320 C.3    35  THR35       0.2028
     32  C        136.7160   27.9100  -16.5300 C.2    35  THR35       0.2642
     33  O        135.9640   27.2330  -15.8230 O.2    35  THR35      -0.2714
     34  CB       138.0570   27.0860  -18.4590 C.3    35  THR35       0.1808
     35  OG1      137.4450   28.1650  -19.1700 O.3    35  THR35      -0.2208
     36  CG2      137.1760   25.8970  -18.6660 C.3    35  THR35       0.0379
     37  N        136.4080   29.1190  -17.0010 N.am   36  LEU36      -0.1977
     38  CA       135.1360   29.7520  -16.7370 C.3    36  LEU36       0.1596
     39  C        134.1850   29.3890  -17.8660 C.2    36  LEU36       0.2287
     40  O        134.5370   29.5030  -19.0360 O.2    36  LEU36      -0.2864
     41  CB       135.3520   31.2170  -16.5150 C.3    36  LEU36       0.0297
     42  CG       136.1520   31.4650  -15.2180 C.3    36  LEU36       0.0022
     43  CD1      136.7680   32.8550  -15.2310 C.3    36  LEU36       0.0001
     44  CD2      135.3210   31.2260  -13.9470 C.3    36  LEU36       0.0001
     45  N        132.0450   23.6680   -2.6340 N.3    58  GLY58      -0.1210
     46  CA       133.2320   23.7420   -3.4610 C.3    58  GLY58       0.1956
     47  C        134.0040   25.0190   -3.1320 C.2    58  GLY58       0.2612
     48  O        133.8590   25.5750   -2.0390 O.2    58  GLY58      -0.2717
     49  N        134.8220   25.4830   -4.0800 N.am   59  GLY59      -0.1942
     50  CA       135.6110   26.6900   -3.8740 C.3    59  GLY59       0.2014
     51  C        136.9620   26.2910   -3.3030 C.2    59  GLY59       0.2639
     52  O        137.0520   25.7620   -2.1850 O.2    59  GLY59      -0.2714
     53  N        138.0020   26.5440   -4.0870 N.am   60  SER60      -0.1949
     54  CA       139.3850   26.2230   -3.7320 C.3    60  SER60       0.1924
     55  C        139.7950   26.6040   -2.2950 C.2    60  SER60       0.2314
     56  O        140.0960   25.7340   -1.4710 O.2    60  SER60      -0.2863
     57  CB       140.2600   26.7890   -4.8300 C.3    60  SER60       0.2116
     58  OG       141.5650   26.4370   -4.5910 O.3    60  SER60      -0.2180
     59  N        137.8070   25.0780    0.5720 N.3    63  ASN63      -0.1240
     60  CA       138.2250   23.7410    0.9230 C.3    63  ASN63       0.1653
     61  C        139.4550   23.8080    1.8360 C.2    63  ASN63       0.2266
     62  O        139.5270   23.1120    2.8440 O.2    63  ASN63      -0.2867
     63  CB       138.6040   23.1340   -0.3990 C.3    63  ASN63       0.1155
     64  CG       137.4320   22.7840   -1.1850 C.2    63  ASN63       0.2627
     65  OD1      136.4070   22.4470   -0.5950 O.2    63  ASN63      -0.2716
     66  ND2      137.5630   22.7550   -2.5310 N.am   63  ASN63      -0.0877
     67  N        130.1640   24.9160   -9.9070 N.3   117  CYS117     -0.1235
     68  CA       131.2420   24.2870  -10.6400 C.3   117  CYS117      0.1677
     69  C        130.8960   22.8780  -11.0700 C.2   117  CYS117      0.2270
     70  O        130.4250   22.0450  -10.2850 O.2   117  CYS117     -0.2867
     71  CB       132.5390   24.1510   -9.8400 C.3   117  CYS117      0.0956
     72  SG       133.9330   23.4620  -10.8200 S.3   117  CYS117     -0.0801
     73  N        140.4320   15.3290  -13.5000 N.3   126  ARG126     -0.1245
     74  CA       139.3390   16.2070  -13.1650 C.3   126  ARG126      0.1563
     75  C        139.3030   17.3930  -14.1210 C.2   126  ARG126      0.2260
     76  O        140.3410   17.9710  -14.4470 O.2   126  ARG126     -0.2867
     77  CB       139.5770   16.7700  -11.7530 C.3   126  ARG126      0.0307
     78  CG       140.7640   17.7780  -11.6920 C.3   126  ARG126      0.0489
     79  CD       140.6840   18.6250  -10.4920 C.3   126  ARG126      0.2205
     80  NE       141.3510   19.9390  -10.5030 N.pl3 126  ARG126     -0.0865
     81  CZ       141.9610   20.5580  -11.5210 C.cat 126  ARG126      0.5346
     82  NH1      142.0560   20.0300  -12.7310 N.pl3 126  ARG126      0.1354
     83  NH2      142.4920   21.7570  -11.3090 N.pl3 126  ARG126      0.1354
     84  N        137.4150   21.0740  -14.5360 N.3   128  LEU128     -0.1245
     85  CA       136.6170   22.1070  -13.8730 C.3   128  LEU128      0.1561
     86  C        136.0010   23.1340  -14.8170 C.2   128  LEU128      0.2260
     87  O        136.7030   23.7880  -15.5860 O.2   128  LEU128     -0.2867
     88  CB       137.5480   22.8690  -12.8990 C.3   128  LEU128      0.0270
     89  CG       138.1740   21.9850  -11.7870 C.3   128  LEU128      0.0019
     90  CD1      139.0700   22.7780  -10.8680 C.3   128  LEU128      0.0001
     91  CD2      137.0480   21.3820  -10.9700 C.3   128  LEU128      0.0001
     92  N        133.4790   26.3710  -14.4890 N.3   130  THR130     -0.1218
     93  CA       132.7910   27.2470  -13.5450 C.3   130  THR130      0.1862
     94  C        132.0250   28.4540  -14.0680 C.2   130  THR130      0.2287
     95  O        132.3200   29.0320  -15.1090 O.2   130  THR130     -0.2866
     96  CB       133.9730   27.8160  -12.5790 C.3   130  THR130      0.1770
     97  OG1      134.6050   26.7060  -11.9690 O.3   130  THR130     -0.2211
     98  CG2      133.5390   28.7320  -11.4450 C.3   130  THR130      0.0375
     99  N        130.9470   31.5260  -11.8890 N.3   132  LEU132     -0.1245
    100  CA       131.1010   32.3010  -10.6730 C.3   132  LEU132      0.1561
    101  C        129.8340   32.9140  -10.1070 C.2   132  LEU132      0.2260
    102  O        129.6300   32.8750   -8.8900 O.2   132  LEU132     -0.2867
    103  CB       132.1700   33.3630  -10.9010 C.3   132  LEU132      0.0270
    104  CG       133.5840   32.8610  -10.6870 C.3   132  LEU132      0.0019
    105  CD1      134.5650   33.8680  -11.2560 C.3   132  LEU132      0.0001
    106  CD2      133.7950   32.5120   -9.1980 C.3   132  LEU132      0.0001
    107  N        143.5720   32.9950   -3.1390 N.3   157  THR157     -0.1218
    108  CA       143.8680   32.2900   -4.3700 C.3   157  THR157      0.1862
    109  C        143.8290   33.2860   -5.5210 C.2   157  THR157      0.2287
    110  O        143.2000   34.3390   -5.4260 O.2   157  THR157     -0.2866
    111  CB       142.6420   31.4040   -4.7220 C.3   157  THR157      0.1770
    112  OG1      141.4540   32.2290   -4.7720 O.3   157  THR157     -0.2211
    113  CG2      142.4400   30.3270   -3.6800 C.3   157  THR157      0.0375
    114  N        142.3090   32.8360   -8.1100 N.3   159  TYR159     -0.1241
    115  CA       140.9460   32.7610   -8.6300 C.3   159  TYR159      0.1605
    116  C        140.1670   34.0220   -8.2360 C.2   159  TYR159      0.2264
    117  O        139.2930   34.4890   -8.9660 O.2   159  TYR159     -0.2867
    118  CB       140.2440   31.5790   -7.9950 C.3   159  TYR159      0.0534
    119  CG       140.4530   30.2610   -8.6970 C.ar  159  TYR159     -0.0201
    120  CD1      140.6850   29.0970   -7.9660 C.ar  159  TYR159     -0.0009
    121  CD2      140.3390   30.1650  -10.0830 C.ar  159  TYR159     -0.0009
    122  CE1      140.8550   27.8790   -8.5890 C.ar  159  TYR159      0.0417
    123  CE2      140.5180   28.9470  -10.7240 C.ar  159  TYR159      0.0417
    124  CZ       140.7500   27.8160   -9.9670 C.ar  159  TYR159      0.1957
    125  OH       140.9650   26.6140  -10.5590 O.3   159  TYR159     -0.2866
    126  N        139.4600   37.4130  -10.4830 N.3   162  THR162     -0.1218
    127  CA       138.3960   37.6150  -11.4520 C.3   162  THR162      0.1862
    128  C        137.3950   38.6810  -11.0210 C.2   162  THR162      0.2287
    129  O        136.8660   39.3980  -11.8710 O.2   162  THR162     -0.2866
    130  CB       137.6830   36.4000  -11.9030 C.3   162  THR162      0.1770
    131  OG1      138.6270   35.3840  -12.2780 O.3   162  THR162     -0.2211
    132  CG2      136.8260   36.7880  -13.1090 C.3   162  THR162      0.0375
    133  N        145.1770   30.0780  -16.4910 N.3   191  PHE191     -0.1241
    134  CA       144.4270   31.2510  -16.9330 C.3   191  PHE191      0.1605
    135  C        144.5610   32.4410  -15.9970 C.2   191  PHE191      0.2264
    136  O        144.5600   33.5890  -16.4450 O.2   191  PHE191     -0.2867
    137  CB       142.9520   30.9710  -17.3290 C.3   191  PHE191      0.0534
    138  CG       141.9410   31.0960  -16.1910 C.ar  191  PHE191     -0.0203
    139  CD1      141.5550   32.3260  -15.6780 C.ar  191  PHE191     -0.0042
    140  CD2      141.3570   29.9580  -15.6420 C.ar  191  PHE191     -0.0042
    141  CE1      140.6040   32.4070  -14.6510 C.ar  191  PHE191     -0.0003
    142  CE2      140.4220   30.0400  -14.6080 C.ar  191  PHE191     -0.0003
    143  CZ       140.0500   31.2600  -14.1090 C.ar  191  PHE191     -0.0000
    144  N        140.7780   15.5500   -7.8910 N.3   286  ASN286     -0.1225
    145  CA       140.0530   16.7960   -7.6680 C.3   286  ASN286      0.1785
    146  C        140.2380   17.2730   -6.2450 C.2   286  ASN286      0.2597
    147  O        140.0230   16.5160   -5.3170 O.2   286  ASN286     -0.2718
    148  CB       138.5650   16.6780   -7.8770 C.3   286  ASN286      0.1169
    149  CG       137.8310   17.8810   -7.3160 C.2   286  ASN286      0.2627
    150  OD1      137.1860   17.8150   -6.2550 O.2   286  ASN286     -0.2716
    151  ND2      137.9330   19.0080   -8.0310 N.am  286  ASN286     -0.0877
    152  N        140.6420   18.5170   -6.0630 N.am  287  GLY287     -0.1957
    153  CA       140.8410   19.0380   -4.7110 C.3   287  GLY287      0.1869
    154  C        142.2020   18.6430   -4.1150 C.2   287  GLY287      0.2309
    155  O        142.4360   18.8480   -2.9220 O.2   287  GLY287     -0.2863
    156  N        144.2700   21.9040   -2.9880 N.3   290  ASP290     -0.1239
    157  CA       143.5380   22.4840   -1.8650 C.3   290  ASP290      0.1674
    158  C        143.8120   21.6900   -0.6140 C.2   290  ASP290      0.2266
    159  O        143.9560   22.2620    0.4620 O.2   290  ASP290     -0.2867
    160  CB       142.0400   22.6080   -2.1230 C.3   290  ASP290      0.1410
    161  CG       141.7160   23.1370   -3.5320 C.2   290  ASP290      0.3668
    162  OD1      142.5130   23.9390   -4.0950 O.co2 290  ASP290     -0.2456
    163  OD2      140.6540   22.7110   -4.0770 O.co2 290  ASP290     -0.2456
    164  N        137.0240   15.8570   -3.4330 N.3   326  PHE326     -0.1241
    165  CA       137.3540   16.3740   -2.1140 C.3   326  PHE326      0.1605
    166  C        136.5190   15.6770   -1.0380 C.2   326  PHE326      0.2264
    167  O        135.3110   15.5170   -1.1660 O.2   326  PHE326     -0.2867
    168  CB       137.1090   17.8760   -2.0560 C.3   326  PHE326      0.0534
    169  CG       137.6290   18.5280   -0.8290 C.ar  326  PHE326     -0.0203
    170  CD1      136.7470   18.9970    0.1450 C.ar  326  PHE326     -0.0042
    171  CD2      138.9880   18.7090   -0.6580 C.ar  326  PHE326     -0.0042
    172  CE1      137.2120   19.6300    1.2820 C.ar  326  PHE326     -0.0003
    173  CE2      139.4750   19.3420    0.4700 C.ar  326  PHE326     -0.0003
    174  CZ       138.5850   19.8100    1.4370 C.ar  326  PHE326     -0.0000
@<TRIPOS>BOND
     1    35    34    1
     2    40    39    2
     3    36    34    1
     4    34    31    1
     5    39    38    1
     6   137   134    1
     7   137   138    1
     8    37    38    1
     9    37    32   am
    10   134   133    1
    11   134   135    1
    12    31    32    1
    13    31    30    1
    14    38    41    1
    15    28    27    2
    16    32    33    2
    17    41    42    1
    18   136   135    2
    19    25    26    1
    20    30    27   am
    21   138   139   ar
    22   138   140   ar
    23    27    26    1
    24   139   141   ar
    25   140   142   ar
    26    87    86    2
    27    26    29    1
    28    43    42    1
    29    42    44    1
    30    95    94    2
    31    86    85    1
    32   141   143   ar
    33   142   143   ar
    34    84    85    1
    35    92    93    1
    36    76    75    2
    37    75    74    1
    38    94    93    1
    39    85    88    1
    40    93    96    1
    41    73    74    1
    42    74    77    1
    43   132   130    1
    44    88    89    1
    45    82    81    1
    46    96    97    1
    47    96    98    1
    48   131   130    1
    49   130   127    1
    50    99   100    1
    51   129   128    2
    52    89    91    1
    53    89    90    1
    54    77    78    1
    55    78    79    1
    56    81    83    1
    57    81    80    2
    58   127   128    1
    59   127   126    1
    60   105   104    1
    61    69    68    1
    62    69    70    2
    63   103   104    1
    64   103   100    1
    65    72    71    1
    66   123   121   ar
    67   123   124   ar
    68   104   106    1
    69   100   101    1
    70    68    67    1
    71    68    71    1
    72   125   124    1
    73    80    79    1
    74   101   102    2
    75   121   119   ar
    76   124   122   ar
    77   117   116    2
    78   119   118    1
    79   119   120   ar
    80   115   116    1
    81   115   114    1
    82   115   118    1
    83   122   120   ar
    84   151   149   am
    85   144   145    1
    86   148   145    1
    87   148   149    1
    88   145   146    1
    89    16    14    1
    90     8     6   am
    91   149   150    2
    92    19    18    1
    93    19    20    2
    94    14    13    1
    95    15    13    1
    96    23    22   ar
    97    18    21    1
    98    18    17    1
    99     6     7    2
   100     6     5    1
   101    22    21    1
   102    22    24   ar
   103   146   152   am
   104   146   147    2
   105    13    10    1
   106   152   153    1
   107     5     2    1
   108   109   110    2
   109   109   108    1
   110    10    11    1
   111    10     9    1
   112    57    58    1
   113    57    54    1
   114   112   111    1
   115    11    12    2
   116   111   108    1
   117   111   113    1
   118   153   154    1
   119   108   107    1
   120     2     3    1
   121     2     1    1
   122     4     3    2
   123   154   155    2
   124   162   161   ar
   125    53    54    1
   126    53    51   am
   127    49    50    1
   128    49    47   am
   129   163   161   ar
   130    50    51    1
   131    54    55    1
   132   161   160    1
   133    46    47    1
   134    46    45    1
   135   164   165    1
   136    51    52    2
   137    47    48    2
   138   156   157    1
   139    66    64   am
   140    55    56    2
   141   160   157    1
   142   165   168    1
   143   165   166    1
   144   168   169    1
   145   157   158    1
   146    64    65    2
   147    64    63    1
   148   167   166    2
   149   169   171   ar
   150   169   170   ar
   151   171   173   ar
   152   158   159    2
   153    63    60    1
   154   170   172   ar
   155   173   174   ar
   156    59    60    1
   157    60    61    1
   158   172   174   ar
   159    61    62    2
