@<TRIPOS>MOLECULE
tmp/1likA01.pdb
 129 120 0 0 0
SMALL
GASTEIGER

@<TRIPOS>ATOM
      1  N        151.4870   24.6370   -8.9680 N.3   213  ASN213     -0.1240
      2  CA       151.8920   23.3480   -9.4980 C.3   213  ASN213      0.1653
      3  C        152.7420   23.5900  -10.7390 C.2   213  ASN213      0.2266
      4  O        152.7840   24.7300  -11.2280 O.2   213  ASN213     -0.2867
      5  CB       150.6700   22.5220   -9.8790 C.3   213  ASN213      0.1155
      6  CG       149.7220   23.2430  -10.8390 C.2   213  ASN213      0.2627
      7  OD1      148.5380   23.0660  -10.6990 O.2   213  ASN213     -0.2716
      8  ND2      150.2270   24.0540  -11.7940 N.am  213  ASN213     -0.0877
      9  N        154.2290   22.1720   -6.5200 N.3   250  THR250     -0.1218
     10  CA       153.8860   20.7630   -6.4640 C.3   250  THR250      0.1862
     11  C        153.9770   20.1180   -7.8450 C.2   250  THR250      0.2287
     12  O        153.6820   20.7450   -8.8800 O.2   250  THR250     -0.2866
     13  CB       152.5950   20.4510   -5.7280 C.3   250  THR250      0.1770
     14  OG1      151.5010   20.8290   -6.5620 O.3   250  THR250     -0.2211
     15  CG2      152.5030   21.1950   -4.4240 C.3   250  THR250      0.0375
     16  N        152.5600   16.6850   -9.0070 N.3   252  GLY252     -0.1210
     17  CA       151.8520   15.4020   -9.0110 C.3   252  GLY252      0.1956
     18  C        152.5730   14.4090   -8.1340 C.2   252  GLY252      0.2611
     19  O        152.8130   14.6880   -6.9610 O.2   252  GLY252     -0.2717
     20  N        152.9500   13.2750   -8.7080 N.am  253  HIS253     -0.1975
     21  CA       153.6590   12.2480   -7.9600 C.3   253  HIS253      0.1656
     22  C        155.1550   12.5370   -7.7400 C.2   253  HIS253      0.2291
     23  O        155.7800   11.8870   -6.9050 O.2   253  HIS253     -0.2864
     24  CB       153.4110   10.9350   -8.6240 C.3   253  HIS253      0.0771
     25  CG       154.2940   10.6970   -9.7800 C.ar  253  HIS253      0.0820
     26  ND1      155.3780    9.8480   -9.7150 N.ar  253  HIS253     -0.2267
     27  CD2      154.2590   11.1770  -11.0420 C.ar  253  HIS253      0.1154
     28  CE1      155.9720    9.8120  -10.8940 C.ar  253  HIS253      0.1986
     29  NE2      155.3120   10.6090  -11.7180 N.ar  253  HIS253     -0.2212
     30  N        158.0940   17.3550   -4.2830 N.3   256  VAL256     -0.1245
     31  CA       157.6830   18.7300   -4.1700 C.3   256  VAL256      0.1561
     32  C        158.9470   19.5880   -4.0850 C.2   256  VAL256      0.2260
     33  O        159.8640   19.2770   -3.3240 O.2   256  VAL256     -0.2867
     34  CB       156.8050   18.9120   -2.8690 C.3   256  VAL256      0.0252
     35  CG1      156.5160   20.3980   -2.5790 C.3   256  VAL256      0.0019
     36  CG2      155.4970   18.1250   -2.9740 C.3   256  VAL256      0.0019
     37  N        157.3950   12.4040   -2.5530 N.3   274  VAL274     -0.1231
     38  CA       155.9950   12.1000   -2.3390 C.3   274  VAL274      0.1678
     39  C        155.8850   10.6080   -2.1700 C.2   274  VAL274      0.2434
     40  O        156.3980    9.8540   -2.9900 O.2   274  VAL274     -0.2733
     41  CB       155.0100   12.6830   -3.3870 C.3   274  VAL274      0.0265
     42  CG1      153.9510   11.6970   -3.8520 C.3   274  VAL274      0.0020
     43  CG2      154.2490   13.8300   -2.7610 C.3   274  VAL274      0.0020
     44  N        155.2380   10.1830   -1.1050 N.am  275  PRO275     -0.2718
     45  CA       155.0840    8.7560   -0.8550 C.3   275  PRO275      0.1535
     46  C        154.2700    8.0920   -1.9620 C.2   275  PRO275      0.2598
     47  O        153.2420    8.6060   -2.4060 O.2   275  PRO275     -0.2715
     48  CB       154.4880    8.6660    0.5560 C.3   275  PRO275      0.0310
     49  CG       154.6570   10.0500    1.1430 C.3   275  PRO275      0.0237
     50  CD       154.8070   11.0410    0.0160 C.3   275  PRO275      0.0939
     51  N        154.7450    6.9460   -2.4080 N.am  276  VAL276     -0.1964
     52  CA       154.0840    6.2050   -3.4640 C.3   276  VAL276      0.1727
     53  C        152.6550    5.7900   -3.1220 C.2   276  VAL276      0.2616
     54  O        152.3690    5.3010   -2.0290 O.2   276  VAL276     -0.2715
     55  CB       154.8780    4.9200   -3.7180 C.3   276  VAL276      0.0290
     56  CG1      154.3350    4.1720   -4.9300 C.3   276  VAL276      0.0023
     57  CG2      156.3550    5.2540   -3.8560 C.3   276  VAL276      0.0023
     58  N        151.7720    5.9960   -4.0920 N.am  277  VAL277     -0.1977
     59  CA       150.3610    5.6370   -3.9840 C.3   277  VAL277      0.1596
     60  C        150.0130    4.9030   -5.2620 C.2   277  VAL277      0.2287
     61  O        150.0130    5.5030   -6.3340 O.2   277  VAL277     -0.2864
     62  CB       149.3530    6.7660   -3.8030 C.3   277  VAL277      0.0276
     63  CG1      147.9410    6.1940   -3.9220 C.3   277  VAL277      0.0022
     64  CG2      149.5380    7.4130   -2.4480 C.3   277  VAL277      0.0022
     65  N        144.3210    5.2150   -6.4530 N.3   282  ILE282     -0.1245
     66  CA       143.9710    6.5970   -6.7700 C.3   282  ILE282      0.1561
     67  C        142.5880    6.6470   -7.4070 C.2   282  ILE282      0.2260
     68  O        142.3100    5.9360   -8.3780 O.2   282  ILE282     -0.2867
     69  CB       144.9500    7.2840   -7.7340 C.3   282  ILE282      0.0252
     70  CG1      146.1470    7.7270   -6.9680 C.3   282  ILE282      0.0019
     71  CG2      144.3960    8.6260   -8.1890 C.3   282  ILE282      0.0019
     72  CD1      147.3390    7.9150   -7.8670 C.3   282  ILE282      0.0001
     73  N        141.8480   13.2250   -8.7200 N.3   285  THR285     -0.1218
     74  CA       142.7920   14.2220   -8.2480 C.3   285  THR285      0.1862
     75  C        142.1010   15.5630   -8.0100 C.2   285  THR285      0.2287
     76  O        142.7590   16.6000   -7.9400 O.2   285  THR285     -0.2866
     77  CB       143.8200   14.4360   -9.4320 C.3   285  THR285      0.1770
     78  OG1      143.1420   15.0640  -10.5290 O.3   285  THR285     -0.2211
     79  CG2      144.3740   13.0970   -9.9790 C.3   285  THR285      0.0375
     80  N        143.1060   18.0890   -4.9410 N.3   288  ALA288     -0.1231
     81  CA       144.4380   17.6730   -4.4740 C.3   288  ALA288      0.1694
     82  C        145.2360   18.8240   -3.8810 C.2   288  ALA288      0.2592
     83  O        145.6970   18.7470   -2.7310 O.2   288  ALA288     -0.2718
     84  CB       145.2770   17.0340   -5.5560 C.3   288  ALA288      0.0304
     85  N        145.4000   19.8820   -4.6780 N.am  289  GLY289     -0.1957
     86  CA       146.1490   21.0640   -4.2580 C.3   289  GLY289      0.1869
     87  C        145.5820   21.6620   -2.9830 C.2   289  GLY289      0.2309
     88  O        146.3210   21.9050   -2.0300 O.2   289  GLY289     -0.2863
     89  N        146.4590   19.9360   -0.2110 N.3   292  PHE292     -0.1241
     90  CA       147.8560   20.1590    0.0400 C.3   292  PHE292      0.1605
     91  C        148.0660   21.4710    0.7810 C.2   292  PHE292      0.2264
     92  O        148.7110   21.5000    1.8250 O.2   292  PHE292     -0.2867
     93  CB       148.6300   20.1940   -1.2280 C.3   292  PHE292      0.0534
     94  CG       150.0830   20.4820   -0.9920 C.ar  292  PHE292     -0.0203
     95  CD1      150.9930   19.4240   -0.8650 C.ar  292  PHE292     -0.0042
     96  CD2      150.5630   21.8060   -0.8400 C.ar  292  PHE292     -0.0042
     97  CE1      152.3470   19.6530   -0.6360 C.ar  292  PHE292     -0.0003
     98  CE2      151.9160   22.0410   -0.5910 C.ar  292  PHE292     -0.0003
     99  CZ       152.8070   20.9610   -0.5180 C.ar  292  PHE292     -0.0000
    100  N        151.2730   16.6760    1.8760 N.3   314  ASN314     -0.1240
    101  CA       151.3490   15.4260    1.1280 C.3   314  ASN314      0.1653
    102  C        150.3780   14.4350    1.7120 C.2   314  ASN314      0.2266
    103  O        149.6280   13.7820    0.9970 O.2   314  ASN314     -0.2867
    104  CB       152.7270   14.8040    1.2360 C.3   314  ASN314      0.1155
    105  CG       153.6740   15.4390    0.2710 C.2   314  ASN314      0.2627
    106  OD1      154.8690   15.5560    0.5090 O.2   314  ASN314     -0.2716
    107  ND2      153.1220   15.9170   -0.8260 N.am  314  ASN314     -0.0877
    108  N        146.7400   15.5710    0.8950 N.3   317  ALA317     -0.1231
    109  CA       146.4570   15.3300   -0.5040 C.3   317  ALA317      0.1694
    110  C        146.2930   13.8370   -0.7540 C.2   317  ALA317      0.2591
    111  O        145.3860   13.3930   -1.4650 O.2   317  ALA317     -0.2718
    112  CB       147.5730   15.9010   -1.3600 C.3   317  ALA317      0.0304
    113  N        147.1750   13.0580   -0.1610 N.am  318  GLN318     -0.1979
    114  CA       147.1070   11.6270   -0.3460 C.3   318  GLN318      0.1601
    115  C        145.7800   11.0470    0.1080 C.2   318  GLN318      0.2287
    116  O        145.1780   10.2350   -0.5920 O.2   318  GLN318     -0.2864
    117  CB       148.3810   10.9750    0.0910 C.3   318  GLN318      0.0394
    118  CG       149.5060   11.6210   -0.7740 C.3   318  GLN318      0.0908
    119  CD       150.6170   10.6680   -1.1050 C.2   318  GLN318      0.2608
    120  OE1      150.9080    9.7750   -0.3130 O.2   318  GLN318     -0.2717
    121  NE2      151.2170   10.8090   -2.2970 N.am  318  GLN318     -0.0878
    122  N        143.0280   12.1250   -2.6120 N.3   321  ILE321     -0.1245
    123  CA       142.9920   11.5010   -3.9390 C.3   321  ILE321      0.1561
    124  C        142.5790   10.0330   -3.8940 C.2   321  ILE321      0.2260
    125  O        142.3710    9.3790   -4.9220 O.2   321  ILE321     -0.2867
    126  CB       144.2620   11.6650   -4.7270 C.3   321  ILE321      0.0252
    127  CG1      145.4360   11.0770   -3.9490 C.3   321  ILE321      0.0019
    128  CG2      144.4140   13.1230   -5.1260 C.3   321  ILE321      0.0019
    129  CD1      146.6760   10.9400   -4.7950 C.3   321  ILE321      0.0001
@<TRIPOS>BOND
     1     8     6   am
     2    29    27   ar
     3    29    28   ar
     4     4     3    2
     5    27    25   ar
     6    28    26   ar
     7     6     7    2
     8     6     5    1
     9     3     2    1
    10    78    77    1
    11    79    77    1
    12     5     2    1
    13    25    26   ar
    14    25    24    1
    15     2     1    1
    16    77    74    1
    17    17    16    1
    18    17    18    1
    19    12    11    2
    20    73    74    1
    21    20    18   am
    22    20    21    1
    23    24    21    1
    24    68    67    2
    25    74    75    1
    26    71    69    1
    27    18    19    2
    28    75    76    2
    29    21    22    1
    30    72    70    1
    31    11    10    1
    32    22    23    2
    33    69    70    1
    34    69    66    1
    35    67    66    1
    36    66    65    1
    37    14    13    1
    38     9    10    1
    39    10    13    1
    40    61    60    2
    41    13    15    1
    42    84    81    1
    43    60    59    1
    44   128   126    1
    45    80    81    1
    46    56    55    1
    47   125   124    2
    48   129   127    1
    49   126   127    1
    50   126   123    1
    51    85    86    1
    52    85    82   am
    53    81    82    1
    54    30    31    1
    55    86    87    1
    56    31    32    1
    57    31    34    1
    58    58    59    1
    59    58    53   am
    60    32    33    2
    61    59    62    1
    62   123   124    1
    63   123   122    1
    64    63    62    1
    65    82    83    2
    66    57    55    1
    67    42    41    1
    68    62    64    1
    69    55    52    1
    70    52    53    1
    71    52    51    1
    72    41    43    1
    73    41    38    1
    74    53    54    2
    75    40    39    2
    76    87    88    2
    77    36    34    1
    78    34    35    1
    79    37    38    1
    80    51    46   am
    81    47    46    2
    82    38    39    1
    83   121   119   am
    84    39    44   am
    85    46    45    1
    86   111   110    2
    87   112   109    1
    88    93    94    1
    89    93    90    1
    90    44    45    1
    91    44    50    1
    92   119   118    1
    93   119   120    2
    94    94    95   ar
    95    94    96   ar
    96    95    97   ar
    97    45    48    1
    98    96    98   ar
    99   107   105   am
   100   118   117    1
   101   110   109    1
   102   110   113   am
   103    97    99   ar
   104   116   115    2
   105    98    99   ar
   106   109   108    1
   107   114   113    1
   108   114   117    1
   109   114   115    1
   110    89    90    1
   111    50    49    1
   112    90    91    1
   113   105   106    2
   114   105   104    1
   115    48    49    1
   116    91    92    2
   117   103   102    2
   118   101   104    1
   119   101   102    1
   120   101   100    1
