@<TRIPOS>MOLECULE
tmp/1linA03.pdb
 111 102 0 0 0
SMALL
GASTEIGER

@<TRIPOS>ATOM
      1  N          5.3360   20.8690   14.3310 N.3    17  PHE17      -0.1241
      2  CA         5.4280   22.3080   14.5360 C.3    17  PHE17       0.1605
      3  C          4.2080   23.0180   13.9620 C.2    17  PHE17       0.2264
      4  O          3.6700   23.9450   14.5660 O.2    17  PHE17      -0.2867
      5  CB         6.6570   22.8540   13.8530 C.3    17  PHE17       0.0534
      6  CG         7.9200   22.3900   14.4530 C.ar   17  PHE17      -0.0203
      7  CD1        8.4840   21.1960   14.0570 C.ar   17  PHE17      -0.0042
      8  CD2        8.5490   23.1430   15.4250 C.ar   17  PHE17      -0.0042
      9  CE1        9.6610   20.7520   14.6200 C.ar   17  PHE17      -0.0003
     10  CE2        9.7250   22.7110   15.9940 C.ar   17  PHE17      -0.0003
     11  CZ        10.2850   21.5110   15.5920 C.ar   17  PHE17      -0.0000
     12  N          4.9750   27.3010    9.7500 N.3    25  ILE25      -0.1245
     13  CA         5.2510   27.2960   11.1700 C.3    25  ILE25       0.1561
     14  C          5.4560   28.7480   11.5090 C.2    25  ILE25       0.2260
     15  O          6.2620   29.4200   10.8790 O.2    25  ILE25      -0.2867
     16  CB         6.5380   26.5420   11.5090 C.3    25  ILE25       0.0252
     17  CG1        6.4220   25.0750   11.0970 C.3    25  ILE25       0.0019
     18  CG2        6.8520   26.6880   12.9990 C.3    25  ILE25       0.0019
     19  CD1        7.7460   24.3390   11.1430 C.3    25  ILE25       0.0001
     20  N          6.2560   27.7340   17.0320 N.3    30  LEU30      -0.1245
     21  CA         7.6010   27.4290   17.4750 C.3    30  LEU30       0.1561
     22  C          7.6650   27.6220   18.9980 C.2    30  LEU30       0.2260
     23  O          8.2530   26.8060   19.7140 O.2    30  LEU30      -0.2867
     24  CB         8.6190   28.3300   16.7480 C.3    30  LEU30       0.0270
     25  CG        10.1200   28.1580   17.0400 C.3    30  LEU30       0.0019
     26  CD1       10.5380   26.7040   16.8450 C.3    30  LEU30       0.0001
     27  CD2       10.9430   29.0730   16.1590 C.3    30  LEU30       0.0001
     28  N          8.5590   24.7260   21.7940 N.3    34  MET34      -0.1245
     29  CA         9.6890   24.9300   22.6900 C.3    34  MET34       0.1570
     30  C          9.2760   24.8700   24.1600 C.2    34  MET34       0.2261
     31  O          9.9920   24.3150   24.9970 O.2    34  MET34      -0.2867
     32  CB        10.4020   26.2310   22.3550 C.3    34  MET34       0.0387
     33  CG        11.0760   26.1540   21.0040 C.3    34  MET34       0.0595
     34  SD        12.2030   27.4900   20.7080 S.3    34  MET34      -0.1393
     35  CE        13.6930   26.7890   21.4070 C.3    34  MET34       0.0692
     36  N         15.1730   32.7080   15.4450 N.3    49  MET49      -0.1230
     37  CA        15.1830   31.3120   15.0170 C.3    49  MET49       0.1702
     38  C         14.4460   31.1430   13.6770 C.2    49  MET49       0.2592
     39  O         14.9290   30.4490   12.7830 O.2    49  MET49      -0.2718
     40  CB        14.5640   30.4260   16.1120 C.3    49  MET49       0.0401
     41  CG        15.3340   30.4780   17.4320 C.3    49  MET49       0.0596
     42  SD        14.5640   29.5410   18.7620 S.3    49  MET49      -0.1393
     43  CE        14.4720   28.0000   18.0230 C.3    49  MET49       0.0692
     44  N         13.2860   31.7860   13.5470 N.am   50  ILE50      -0.1980
     45  CA        12.4940   31.7240   12.3230 C.3    50  ILE50       0.1595
     46  C         13.2510   32.4040   11.1850 C.2    50  ILE50       0.2287
     47  O         13.2870   31.8940   10.0640 O.2    50  ILE50      -0.2864
     48  CB        11.1250   32.4440   12.4800 C.3    50  ILE50       0.0276
     49  CG1       10.2350   31.7160   13.4920 C.3    50  ILE50       0.0022
     50  CG2       10.4130   32.5630   11.1240 C.3    50  ILE50       0.0022
     51  CD1        9.7090   30.3950   13.0320 C.3    50  ILE50       0.0001
     52  N         16.4550   32.7810   10.7740 N.3    52  GLU52      -0.1231
     53  CA        17.6520   32.0620   10.3650 C.3    52  GLU52       0.1699
     54  C         17.2790   30.9990    9.3100 C.2    52  GLU52       0.2592
     55  O         18.1070   30.6350    8.4820 O.2    52  GLU52      -0.2718
     56  CB        18.2850   31.3480   11.5550 C.3    52  GLU52       0.0402
     57  CG        18.8390   32.2460   12.6290 C.3    52  GLU52       0.1161
     58  CD        19.4370   31.4450   13.7650 C.2    52  GLU52       0.3649
     59  OE1       18.7050   30.6440   14.3910 O.co2  52  GLU52      -0.2457
     60  OE2       20.6470   31.6030   14.0200 O.co2  52  GLU52      -0.2457
     61  N         16.0370   30.5060    9.3690 N.am   53  VAL53      -0.1980
     62  CA        15.5040   29.4700    8.4730 C.3    53  VAL53       0.1595
     63  C         14.5730   30.0280    7.3870 C.2    53  VAL53       0.2287
     64  O         14.3000   29.3670    6.3830 O.2    53  VAL53      -0.2864
     65  CB        14.6930   28.4380    9.2940 C.3    53  VAL53       0.0276
     66  CG1       14.1840   27.3200    8.4160 C.3    53  VAL53       0.0022
     67  CG2       15.5320   27.8940   10.4120 C.3    53  VAL53       0.0022
     68  N          7.8640   29.7090    8.2120 N.3    61  ILE61      -0.1245
     69  CA         8.6170   28.6170    7.6120 C.3    61  ILE61       0.1561
     70  C          7.6730   27.6280    6.9130 C.2    61  ILE61       0.2260
     71  O          6.7340   27.1130    7.5320 O.2    61  ILE61      -0.2867
     72  CB         9.4070   27.8700    8.6880 C.3    61  ILE61       0.0252
     73  CG1       10.2420   28.8530    9.5040 C.3    61  ILE61       0.0019
     74  CG2       10.2550   26.7920    8.0630 C.3    61  ILE61       0.0019
     75  CD1       11.0910   29.7770    8.6730 C.3    61  ILE61       0.0001
     76  N         11.9710   24.2830    5.7370 N.3    66  PHE66      -0.1241
     77  CA        12.2310   23.3450    6.8280 C.3    66  PHE66       0.1605
     78  C         13.0570   22.1630    6.2960 C.2    66  PHE66       0.2264
     79  O         14.0390   21.7500    6.9170 O.2    66  PHE66      -0.2867
     80  CB        10.8970   22.8670    7.3990 C.3    66  PHE66       0.0534
     81  CG        11.0180   21.9280    8.5690 C.ar   66  PHE66      -0.0203
     82  CD1       11.1660   22.4230    9.8590 C.ar   66  PHE66      -0.0042
     83  CD2       10.8950   20.5540    8.3860 C.ar   66  PHE66      -0.0042
     84  CE1       11.1840   21.5690   10.9510 C.ar   66  PHE66      -0.0003
     85  CE2       10.9100   19.6890    9.4620 C.ar   66  PHE66      -0.0003
     86  CZ        11.0540   20.2030   10.7580 C.ar   66  PHE66      -0.0000
     87  N         16.6430   23.2300    5.7600 N.3    69  MET69      -0.1245
     88  CA        17.3200   23.2680    7.0470 C.3    69  MET69       0.1570
     89  C         17.6610   21.8570    7.5220 C.2    69  MET69       0.2261
     90  O         18.7890   21.5790    7.9290 O.2    69  MET69      -0.2867
     91  CB        16.4190   23.9340    8.0810 C.3    69  MET69       0.0387
     92  CG        17.0250   23.9630    9.4690 C.3    69  MET69       0.0595
     93  SD        15.7980   24.1700   10.7600 S.3    69  MET69      -0.1393
     94  CE        15.1240   22.5310   10.8030 C.3    69  MET69       0.0692
     95  N         26.0620   19.3600    9.9940 N.3    74  MET74      -0.1245
     96  CA        27.1920   20.0260   10.6510 C.3    74  MET74       0.1570
     97  C         27.9280   19.0510   11.5830 C.2    74  MET74       0.2261
     98  O         27.4280   17.9590   11.8820 O.2    74  MET74      -0.2867
     99  CB        26.7070   21.2520   11.4370 C.3    74  MET74       0.0387
    100  CG        25.7470   20.9630   12.5960 C.3    74  MET74       0.0595
    101  SD        25.3070   22.4880   13.5210 S.3    74  MET74      -0.1393
    102  CE        24.2290   23.2350   12.4050 C.3    74  MET74       0.0692
    103  N         24.2260   22.5040   22.8440 N.3    82  GLU82      -0.1245
    104  CA        22.8350   22.3880   22.3980 C.3    82  GLU82       0.1567
    105  C         22.4260   20.9120   22.4410 C.2    82  GLU82       0.2260
    106  O         21.3360   20.5760   22.9060 O.2    82  GLU82      -0.2867
    107  CB        22.6630   22.9220   20.9660 C.3    82  GLU82       0.0388
    108  CG        22.5880   24.4520   20.8320 C.3    82  GLU82       0.1160
    109  CD        22.8210   24.9550   19.3910 C.2    82  GLU82       0.3649
    110  OE1       22.5220   24.2110   18.4220 O.co2  82  GLU82      -0.2457
    111  OE2       23.3180   26.1000   19.2270 O.co2  82  GLU82      -0.2457
@<TRIPOS>BOND
     1    76    77    1
     2    87    88    1
     3    78    77    1
     4    78    79    2
     5    64    63    2
     6    77    80    1
     7    70    71    2
     8    70    69    1
     9    88    89    1
    10    88    91    1
    11    63    62    1
    12    80    81    1
    13    89    90    2
    14    69    68    1
    15    69    72    1
    16    74    72    1
    17    91    92    1
    18    83    81   ar
    19    83    85   ar
    20    66    65    1
    21    62    65    1
    22    62    61    1
    23    55    54    2
    24    81    82   ar
    25    75    73    1
    26    72    73    1
    27    65    67    1
    28    54    61   am
    29    54    53    1
    30    85    86   ar
    31    92    93    1
    32    12    13    1
    33    82    84   ar
    34    95    96    1
    35    47    46    2
    36    53    52    1
    37    53    56    1
    38    96    99    1
    39    96    97    1
    40    86    84   ar
    41    93    94    1
    42    15    14    2
    43    17    19    1
    44    17    16    1
    45    50    48    1
    46    13    14    1
    47    13    16    1
    48    46    45    1
    49    99   100    1
    50    16    18    1
    51    56    57    1
    52    97    98    2
    53    45    48    1
    54    45    44    1
    55   102   101    1
    56    48    49    1
    57   100   101    1
    58    57    58    1
    59    39    38    2
    60    51    49    1
    61    44    38   am
    62    38    37    1
    63    58    60   ar
    64    58    59   ar
    65     5     6    1
    66     5     2    1
    67     3     2    1
    68     3     4    2
    69     7     6   ar
    70     7     9   ar
    71     1     2    1
    72     6     8   ar
    73     9    11   ar
    74    37    36    1
    75    37    40    1
    76     8    10   ar
    77    11    10   ar
    78    40    41    1
    79    27    25    1
    80    24    25    1
    81    24    21    1
    82    26    25    1
    83    20    21    1
    84    41    42    1
    85    21    22    1
    86    43    42    1
    87   110   109   ar
    88    22    23    2
    89   111   109   ar
    90   109   108    1
    91    34    33    1
    92    34    35    1
    93   108   107    1
    94   107   104    1
    95    33    32    1
    96    28    29    1
    97    32    29    1
    98   104   105    1
    99   104   103    1
   100   105   106    2
   101    29    30    1
   102    30    31    2
