@<TRIPOS>MOLECULE
tmp/1linA02.pdb
 140 131 0 0 0
SMALL
GASTEIGER

@<TRIPOS>ATOM
      1  N         13.6490    9.8690    4.1690 N.3     6  GLN6       -0.1245
      2  CA        13.9450   11.0290    4.9860 C.3     6  GLN6        0.1566
      3  C         12.9570   12.1500    4.7080 C.2     6  GLN6        0.2260
      4  O         12.5460   12.8500    5.6340 O.2     6  GLN6       -0.2867
      5  CB        15.3680   11.5100    4.7330 C.3     6  GLN6        0.0367
      6  CG        16.4440   10.5740    5.2440 C.3     6  GLN6        0.0905
      7  CD        17.8420   11.0480    4.8810 C.2     6  GLN6        0.2608
      8  OE1       18.2950   10.8750    3.7480 O.2     6  GLN6       -0.2717
      9  NE2       18.5270   11.6650    5.8390 N.am    6  GLN6       -0.0878
     10  N          9.7630   11.4450    6.4930 N.3     9  GLU9       -0.1231
     11  CA        10.0160   11.5900    7.9120 C.3     9  GLU9        0.1699
     12  C         10.0480   13.0650    8.2780 C.2     9  GLU9        0.2592
     13  O          9.4610   13.4690    9.2740 O.2     9  GLU9       -0.2718
     14  CB        11.3440   10.9400    8.2930 C.3     9  GLU9        0.0402
     15  CG        11.3250    9.4320    8.1730 C.3     9  GLU9        0.1161
     16  CD        12.6470    8.7840    8.5190 C.2     9  GLU9        0.3649
     17  OE1       13.6870    9.4700    8.6070 O.co2   9  GLU9       -0.2457
     18  OE2       12.6460    7.5590    8.6990 O.co2   9  GLU9       -0.2457
     19  N         10.7060   13.8740    7.4570 N.am   10  PHE10      -0.1976
     20  CA        10.8030   15.3040    7.7280 C.3    10  PHE10       0.1639
     21  C          9.4540   16.0140    7.5950 C.2    10  PHE10       0.2290
     22  O          9.2310   17.0580    8.2160 O.2    10  PHE10      -0.2864
     23  CB        11.8530   15.9520    6.8270 C.3    10  PHE10       0.0560
     24  CG        13.2490   15.4530    7.0710 C.ar   10  PHE10      -0.0200
     25  CD1       13.6720   15.1330    8.3440 C.ar   10  PHE10      -0.0042
     26  CD2       14.1520   15.3350    6.0250 C.ar   10  PHE10      -0.0042
     27  CE1       14.9700   14.7060    8.5700 C.ar   10  PHE10      -0.0003
     28  CE2       15.4540   14.9070    6.2510 C.ar   10  PHE10      -0.0003
     29  CZ        15.8630   14.5940    7.5230 C.ar   10  PHE10      -0.0000
     30  N          7.8470   15.3640   10.8840 N.3    13  ALA13      -0.1245
     31  CA         8.4300   16.2760   11.8560 C.3    13  ALA13       0.1562
     32  C          7.8230   17.6620   11.6510 C.2    13  ALA13       0.2260
     33  O          7.3940   18.3100   12.6150 O.2    13  ALA13      -0.2867
     34  CB         9.9640   16.3290   11.7020 C.3    13  ALA13       0.0290
     35  N         16.6650   20.9820    7.4790 N.3    70  MET70      -0.1230
     36  CA        16.8120   19.6000    7.9050 C.3    70  MET70       0.1702
     37  C         17.7850   18.8040    7.0550 C.2    70  MET70       0.2592
     38  O         18.4690   17.9130    7.5490 O.2    70  MET70      -0.2718
     39  CB        15.4540   18.9060    7.8640 C.3    70  MET70       0.0401
     40  CG        14.4960   19.3950    8.9110 C.3    70  MET70       0.0596
     41  SD        15.1860   19.2010   10.5760 S.3    70  MET70      -0.1393
     42  CE        14.5860   17.5190   10.9820 C.3    70  MET70       0.0692
     43  N         17.8170   19.1140    5.7660 N.am   71  ALA71      -0.1966
     44  CA        18.6690   18.4100    4.8270 C.3    71  ALA71       0.1728
     45  C         20.1290   18.6030    5.1580 C.2    71  ALA71       0.2616
     46  O         20.9030   17.6560    5.0990 O.2    71  ALA71      -0.2715
     47  CB        18.3870   18.8840    3.4070 C.3    71  ALA71       0.0334
     48  N         20.4950   19.8330    5.5020 N.am   72  ARG72      -0.1963
     49  CA        21.8770   20.1920    5.8180 C.3    72  ARG72       0.1729
     50  C         22.4550   19.5480    7.0870 C.2    72  ARG72       0.2616
     51  O         21.7240   19.1760    8.0110 O.2    72  ARG72      -0.2715
     52  CB        22.0200   21.7220    5.8530 C.3    72  ARG72       0.0348
     53  CG        21.6280   22.3790    4.5260 C.3    72  ARG72       0.0492
     54  CD        21.8460   23.8960    4.4710 C.3    72  ARG72       0.2205
     55  NE        21.5220   24.4210    3.1370 N.pl3  72  ARG72      -0.0865
     56  CZ        21.5430   25.7100    2.7940 C.cat  72  ARG72       0.5346
     57  NH1       21.8790   26.6440    3.6780 N.pl3  72  ARG72       0.1354
     58  NH2       21.2050   26.0690    1.5610 N.pl3  72  ARG72       0.1354
     59  N         23.7800   19.4220    7.1230 N.am   73  LYS73      -0.1977
     60  CA        24.4610   18.8170    8.2620 C.3    73  LYS73       0.1596
     61  C         25.6610   19.6350    8.7500 C.2    73  LYS73       0.2287
     62  O         26.2040   20.4820    8.0160 O.2    73  LYS73      -0.2864
     63  CB        24.8950   17.3880    7.9190 C.3    73  LYS73       0.0298
     64  CG        25.8950   17.2760    6.8220 C.3    73  LYS73       0.0038
     65  CD        26.4440   15.8470    6.7700 C.3    73  LYS73       0.0206
     66  CE        27.2780   15.7490    5.5210 C.3    73  LYS73       0.1093
     67  NZ        27.9750   14.4410    5.5500 N.3    73  LYS73      -0.1314
     68  N         19.5540   19.0800   24.6050 N.3    86  ALA86      -0.1245
     69  CA        18.5070   18.2920   23.9700 C.3    86  ALA86       0.1562
     70  C         18.4630   16.9230   24.6380 C.2    86  ALA86       0.2260
     71  O         17.3900   16.4350   24.9730 O.2    86  ALA86      -0.2867
     72  CB        18.7680   18.1520   22.4830 C.3    86  ALA86       0.0290
     73  N         15.1510   14.5320   27.0270 N.3    90  PHE90      -0.1241
     74  CA        14.7170   13.1500   26.9240 C.3    90  PHE90       0.1605
     75  C         15.0550   12.4070   28.2070 C.2    90  PHE90       0.2264
     76  O         14.1970   11.7660   28.8080 O.2    90  PHE90      -0.2867
     77  CB        15.4000   12.4630   25.7550 C.3    90  PHE90       0.0534
     78  CG        14.8550   12.8610   24.4330 C.ar   90  PHE90      -0.0203
     79  CD1       13.6860   12.3090   23.9710 C.ar   90  PHE90      -0.0042
     80  CD2       15.4780   13.8200   23.6800 C.ar   90  PHE90      -0.0042
     81  CE1       13.1420   12.7170   22.7790 C.ar   90  PHE90      -0.0003
     82  CE2       14.9380   14.2320   22.4890 C.ar   90  PHE90      -0.0003
     83  CZ        13.7660   13.6780   22.0400 C.ar   90  PHE90      -0.0000
     84  N          7.5180   12.5450   23.2510 N.3   107  MET107     -0.1245
     85  CA         6.7100   12.5640   22.0580 C.3   107  MET107      0.1570
     86  C          5.2630   12.9320   22.3600 C.2   107  MET107      0.2261
     87  O          4.6720   13.7460   21.6450 O.2   107  MET107     -0.2867
     88  CB         6.7870   11.2130   21.3700 C.3   107  MET107      0.0387
     89  CG         8.1220   10.9680   20.7280 C.3   107  MET107      0.0595
     90  SD         8.4650   12.0680   19.3400 S.3   107  MET107     -0.1393
     91  CE         9.8100   12.9670   19.9730 C.3   107  MET107      0.0692
     92  N          4.6400   16.3660   23.0030 N.3   110  LEU110     -0.1245
     93  CA         4.7900   17.0570   21.7240 C.3   110  LEU110      0.1561
     94  C          3.5480   16.8460   20.8860 C.2   110  LEU110      0.2260
     95  O          3.4240   17.3890   19.7960 O.2   110  LEU110     -0.2867
     96  CB         5.9840   16.5080   20.9440 C.3   110  LEU110      0.0270
     97  CG         7.3660   16.9970   21.3480 C.3   110  LEU110      0.0019
     98  CD1        8.3900   16.2570   20.5390 C.3   110  LEU110      0.0001
     99  CD2        7.4820   18.4880   21.1080 C.3   110  LEU110      0.0001
    100  N         16.8960    2.2390   16.0570 N.3   125  GLU125     -0.1245
    101  CA        17.7100    2.9320   15.0590 C.3   125  GLU125      0.1567
    102  C         18.8260    3.8340   15.5930 C.2   125  GLU125      0.2260
    103  O         19.7840    4.1160   14.8770 O.2   125  GLU125     -0.2867
    104  CB        16.8260    3.7210   14.1290 C.3   125  GLU125      0.0388
    105  CG        16.0150    2.8490   13.2430 C.3   125  GLU125      0.1160
    106  CD        15.2250    3.6590   12.2580 C.2   125  GLU125      0.3649
    107  OE1       15.7220    4.7360   11.8580 O.co2 125  GLU125     -0.2457
    108  OE2       14.1080    3.2350   11.8870 O.co2 125  GLU125     -0.2457
    109  N         23.4580    9.2960   21.2380 N.3   139  PHE139     -0.1241
    110  CA        22.6090   10.4290   20.9290 C.3   139  PHE139      0.1605
    111  C         23.3540   11.4400   20.0270 C.2   139  PHE139      0.2264
    112  O         22.8180   11.9270   19.0220 O.2   139  PHE139     -0.2867
    113  CB        22.1710   11.0780   22.2410 C.3   139  PHE139      0.0534
    114  CG        21.2080   12.1820   22.0650 C.ar  139  PHE139     -0.0203
    115  CD1       19.8810   11.9140   21.8450 C.ar  139  PHE139     -0.0042
    116  CD2       21.6300   13.4960   22.1330 C.ar  139  PHE139     -0.0042
    117  CE1       18.9860   12.9310   21.6960 C.ar  139  PHE139     -0.0003
    118  CE2       20.7420   14.5190   21.9860 C.ar  139  PHE139     -0.0003
    119  CZ        19.4130   14.2380   21.7680 C.ar  139  PHE139     -0.0000
    120  N         23.5690   10.2700   16.4240 N.3   142  MET142     -0.1230
    121  CA        22.2880   10.3690   15.7460 C.3   142  MET142      0.1702
    122  C         22.1530   11.8030   15.2160 C.2   142  MET142      0.2592
    123  O         21.7390   12.0210   14.0760 O.2   142  MET142     -0.2718
    124  CB        21.1520   10.1010   16.7270 C.3   142  MET142      0.0401
    125  CG        19.8030   10.5420   16.2110 C.3   142  MET142      0.0596
    126  SD        18.4900   10.3650   17.4140 S.3   142  MET142     -0.1393
    127  CE        18.2900   12.0610   17.9560 C.3   142  MET142      0.0692
    128  N         22.5430   12.7670   16.0500 N.am  143  MET143     -0.1979
    129  CA        22.4520   14.1940   15.7320 C.3   143  MET143      0.1605
    130  C         23.4590   14.6910   14.7160 C.2   143  MET143      0.2287
    131  O         23.1100   15.4270   13.8020 O.2   143  MET143     -0.2864
    132  CB        22.5870   15.0230   17.0050 C.3   143  MET143      0.0413
    133  CG        21.5090   14.7510   18.0190 C.3   143  MET143      0.0598
    134  SD        19.9090   15.1180   17.3100 S.3   143  MET143     -0.1393
    135  CE        19.4100   16.4840   18.3350 C.3   143  MET143      0.0692
    136  N         24.7450   13.2590   12.3000 N.3   145  ALA145     -0.1245
    137  CA        24.6740   12.4860   11.0590 C.3   145  ALA145      0.1562
    138  C         25.8520   11.5500   10.8060 C.2   145  ALA145      0.2260
    139  O         26.1190   11.1730    9.6490 O.2   145  ALA145     -0.2867
    140  CB        24.5060   13.4340    9.8720 C.3   145  ALA145      0.0290
@<TRIPOS>BOND
     1    58    56    1
     2    56    55    2
     3    56    57    1
     4    55    54    1
     5    47    44    1
     6     8     7    2
     7     1     2    1
     8    54    53    1
     9    53    52    1
    10     3     2    1
    11     3     4    2
    12     5     2    1
    13     5     6    1
    14    44    45    1
    15    44    43    1
    16     7     6    1
    17     7     9   am
    18    46    45    2
    19    45    48   am
    20    48    49    1
    21    66    67    1
    22    66    65    1
    23    43    37   am
    24    49    52    1
    25    49    50    1
    26    26    28   ar
    27    26    24   ar
    28    28    29   ar
    29    10    11    1
    30    65    64    1
    31    64    63    1
    32    23    24    1
    33    23    20    1
    34    37    38    2
    35    37    36    1
    36    24    25   ar
    37    50    59   am
    38    50    51    2
    39    59    60    1
    40    19    20    1
    41    19    12   am
    42    35    36    1
    43    29    27   ar
    44    21    20    1
    45    21    22    2
    46    39    36    1
    47    39    40    1
    48    11    12    1
    49    11    14    1
    50    63    60    1
    51    62    61    2
    52    15    14    1
    53    15    16    1
    54    60    61    1
    55    12    13    2
    56    25    27   ar
    57    16    17   ar
    58    16    18   ar
    59    40    41    1
    60   139   138    2
    61   140   137    1
    62    41    42    1
    63   138   137    1
    64    30    31    1
    65   137   136    1
    66    32    31    1
    67    32    33    2
    68    34    31    1
    69   107   106   ar
    70   108   106   ar
    71   106   105    1
    72   105   104    1
    73   131   130    2
    74   123   122    2
    75   104   101    1
    76   130   129    1
    77   103   102    2
    78   101   102    1
    79   101   100    1
    80   122   121    1
    81   122   128   am
    82   129   128    1
    83   129   132    1
    84   121   120    1
    85   121   124    1
    86   125   124    1
    87   125   126    1
    88   132   133    1
    89   134   133    1
    90   134   135    1
    91   126   127    1
    92   112   111    2
    93    90    91    1
    94    90    89    1
    95    95    94    2
    96   111   110    1
    97    98    97    1
    98    89    88    1
    99    94    93    1
   100   110   109    1
   101   110   113    1
   102    96    97    1
   103    96    93    1
   104    99    97    1
   105    88    85    1
   106    87    86    2
   107   117   119   ar
   108   117   115   ar
   109    93    92    1
   110   119   118   ar
   111   115   114   ar
   112   118   116   ar
   113    83    82   ar
   114    83    81   ar
   115    85    86    1
   116    85    84    1
   117   114   116   ar
   118   114   113    1
   119    72    69    1
   120    82    80   ar
   121    81    79   ar
   122    80    78   ar
   123    69    68    1
   124    69    70    1
   125    79    78   ar
   126    78    77    1
   127    70    71    2
   128    77    74    1
   129    74    73    1
   130    74    75    1
   131    75    76    2
