@<TRIPOS>MOLECULE
tmp/1ljtA00.pdb
 98 95 0 0 0
SMALL
GASTEIGER

@<TRIPOS>ATOM
      1  N        -36.9350   40.9400    7.8870 N.3     1  PRO1       -0.2102
      2  CA       -36.0870   41.0060    6.6760 C.3     1  PRO1        0.1504
      3  C        -35.1360   39.8200    6.6370 C.2     1  PRO1        0.2575
      4  O        -34.8900   39.1800    7.6660 O.2     1  PRO1       -0.2718
      5  CB       -35.3240   42.3190    6.7420 C.3     1  PRO1        0.0282
      6  CG       -36.3320   43.2050    7.4690 C.3     1  PRO1        0.0208
      7  CD       -37.0140   42.2800    8.5130 C.3     1  PRO1        0.0893
      8  N        -34.6240   39.5270    5.4490 N.am    2  MET2       -0.1980
      9  CA       -33.6980   38.4250    5.2380 C.3     2  MET2        0.1605
     10  C        -32.4800   38.9480    4.4700 C.2     2  MET2        0.2287
     11  O        -32.6250   39.5230    3.3890 O.2     2  MET2       -0.2864
     12  CB       -34.3770   37.3180    4.4190 C.3     2  MET2        0.0413
     13  CG       -33.5360   36.0690    4.2300 C.3     2  MET2        0.0598
     14  SD       -34.1850   35.0350    2.9200 S.3     2  MET2       -0.1393
     15  CE       -35.6420   34.3710    3.7070 C.3     2  MET2        0.0692
     16  N        -37.0310   47.7300   11.3950 N.3    32  LYS32      -0.1231
     17  CA       -37.7480   46.5080   11.7230 C.3    32  LYS32       0.1678
     18  C        -37.1420   45.9320   13.0020 C.2    32  LYS32       0.2434
     19  O        -35.9270   45.9970   13.2070 O.2    32  LYS32      -0.2733
     20  CB       -37.5820   45.4840   10.6060 C.3    32  LYS32       0.0284
     21  CG       -38.0360   45.9440    9.2430 C.3    32  LYS32       0.0035
     22  CD       -39.4810   45.5680    8.9890 C.3    32  LYS32       0.0206
     23  CE       -39.8740   45.8500    7.5530 C.3    32  LYS32       0.1093
     24  NZ       -41.2550   45.3930    7.2840 N.3    32  LYS32      -0.1314
     25  N        -37.9810   45.4150   13.9080 N.am   33  PRO33      -0.2729
     26  CA       -37.5140   44.8240   15.1690 C.3    33  PRO33       0.1401
     27  C        -36.4990   43.7010   14.8770 C.2    33  PRO33       0.2269
     28  O        -36.7120   42.9010   13.9600 O.2    33  PRO33      -0.2865
     29  CB       -38.8050   44.2800   15.7700 C.3    33  PRO33       0.0296
     30  CG       -39.8060   45.3020   15.3450 C.3    33  PRO33       0.0237
     31  CD       -39.4540   45.5220   13.8900 C.3    33  PRO33       0.0939
     32  N        -37.2670   39.9670   13.8520 N.3    36  TYR36      -0.1241
     33  CA       -37.7060   39.5850   12.5010 C.3    36  TYR36       0.1605
     34  C        -36.5660   39.4480   11.5130 C.2    36  TYR36       0.2264
     35  O        -36.7950   39.1050   10.3500 O.2    36  TYR36      -0.2867
     36  CB       -38.6420   40.6250   11.8870 C.3    36  TYR36       0.0534
     37  CG       -39.8590   41.0190   12.6770 C.ar   36  TYR36      -0.0201
     38  CD1      -40.6690   40.0670   13.3150 C.ar   36  TYR36      -0.0009
     39  CD2      -40.2200   42.3560   12.7640 C.ar   36  TYR36      -0.0009
     40  CE1      -41.8130   40.4600   14.0230 C.ar   36  TYR36       0.0417
     41  CE2      -41.3450   42.7510   13.4580 C.ar   36  TYR36       0.0417
     42  CZ       -42.1370   41.8110   14.0840 C.ar   36  TYR36       0.1957
     43  OH       -43.2400   42.2520   14.7710 O.3    36  TYR36      -0.2866
     44  N        -33.3800   37.8930    9.7610 N.3    38  ALA38      -0.1245
     45  CA       -32.7070   36.6200    9.5250 C.3    38  ALA38       0.1562
     46  C        -31.4530   36.9600    8.7170 C.2    38  ALA38       0.2260
     47  O        -31.5150   37.7340    7.7530 O.2    38  ALA38      -0.2867
     48  CB       -33.6120   35.6600    8.7390 C.3    38  ALA38       0.0290
     49  N        -34.1190   41.0480    1.4050 N.3    62  HIS62      -0.1226
     50  CA       -35.5570   40.9340    1.1380 C.3    62  HIS62       0.1752
     51  C        -36.2580   41.5930    2.3100 C.2    62  HIS62       0.2597
     52  O        -35.8860   41.3730    3.4730 O.2    62  HIS62      -0.2718
     53  CB       -36.0030   39.4620    1.1140 C.3    62  HIS62       0.0759
     54  CG       -35.5320   38.6910   -0.0770 C.ar   62  HIS62       0.0818
     55  ND1      -34.2390   38.2260   -0.1960 N.ar   62  HIS62      -0.2268
     56  CD2      -36.1860   38.2610   -1.1810 C.ar   62  HIS62       0.1154
     57  CE1      -34.1170   37.5430   -1.3180 C.ar   62  HIS62       0.1986
     58  NE2      -35.2850   37.5470   -1.9340 N.ar   62  HIS62      -0.2212
     59  N        -37.3050   42.3450    2.0170 N.am   63  SER63      -0.1938
     60  CA       -38.0670   42.9990    3.0620 C.3    63  SER63       0.2055
     61  C        -39.4560   43.4030    2.5620 C.2    63  SER63       0.2642
     62  O        -39.6500   43.7100    1.3800 O.2    63  SER63      -0.2714
     63  CB       -37.3320   44.2420    3.5530 C.3    63  SER63       0.2130
     64  OG       -38.0840   44.8950    4.5530 O.3    63  SER63      -0.2179
     65  N        -40.4430   43.3120    3.4420 N.am   64  ILE64      -0.1977
     66  CA       -41.7980   43.7330    3.1050 C.3    64  ILE64       0.1596
     67  C        -41.7350   45.2290    3.4070 C.2    64  ILE64       0.2287
     68  O        -41.7130   45.6320    4.5700 O.2    64  ILE64      -0.2864
     69  CB       -42.8400   43.0440    4.0250 C.3    64  ILE64       0.0276
     70  CG1      -42.8390   41.5410    3.7700 C.3    64  ILE64       0.0022
     71  CG2      -44.2310   43.6040    3.7720 C.3    64  ILE64       0.0022
     72  CD1      -43.5230   40.7570    4.8630 C.3    64  ILE64       0.0001
     73  N        -40.6590   42.6480   -0.9860 N.3   101  MET101     -0.1245
     74  CA       -41.5990   41.5270   -0.9890 C.3   101  MET101      0.1570
     75  C        -43.0160   41.8970   -0.5970 C.2   101  MET101      0.2261
     76  O        -43.2370   42.6840    0.3220 O.2   101  MET101     -0.2867
     77  CB       -41.1080   40.4240   -0.0430 C.3   101  MET101      0.0387
     78  CG       -39.7630   39.8090   -0.4260 C.3   101  MET101      0.0595
     79  SD       -39.7830   39.0270   -2.0490 S.3   101  MET101     -0.1393
     80  CE       -40.8960   37.6040   -1.7810 C.3   101  MET101      0.0692
     81  N        -44.6160   36.1420    1.5220 N.3   106  VAL106     -0.1245
     82  CA       -43.6100   35.8140    2.5160 C.3   106  VAL106      0.1561
     83  C        -44.2470   34.9120    3.5470 C.2   106  VAL106      0.2260
     84  O        -45.1360   35.3420    4.2940 O.2   106  VAL106     -0.2867
     85  CB       -43.0170   37.0750    3.2240 C.3   106  VAL106      0.0252
     86  CG1      -41.9230   36.6590    4.1960 C.3   106  VAL106      0.0019
     87  CG2      -42.4590   38.0570    2.2040 C.3   106  VAL106      0.0019
     88  N        -47.6020   36.7840    5.8530 N.3   113  PHE113     -0.1241
     89  CA       -47.8000   38.0660    6.5370 C.3   113  PHE113      0.1605
     90  C        -48.9980   38.8820    6.0350 C.2   113  PHE113      0.2264
     91  O        -49.2680   39.9540    6.5580 O.2   113  PHE113     -0.2867
     92  CB       -46.5160   38.9080    6.4570 C.3   113  PHE113      0.0534
     93  CG       -45.4330   38.4450    7.3850 C.ar  113  PHE113     -0.0203
     94  CD1      -44.2870   37.8130    6.9000 C.ar  113  PHE113     -0.0042
     95  CD2      -45.5660   38.6200    8.7530 C.ar  113  PHE113     -0.0042
     96  CE1      -43.2990   37.3550    7.7670 C.ar  113  PHE113     -0.0003
     97  CE2      -44.5820   38.1670    9.6270 C.ar  113  PHE113     -0.0003
     98  CZ       -43.4460   37.5330    9.1320 C.ar  113  PHE113     -0.0000
@<TRIPOS>BOND
     1    79    80    1
     2    79    78    1
     3    58    57   ar
     4    58    56   ar
     5    57    55   ar
     6    56    54   ar
     7    74    73    1
     8    74    75    1
     9    74    77    1
    10    75    76    2
    11    78    77    1
    12    55    54   ar
    13    54    53    1
    14    53    50    1
    15    50    49    1
    16    50    51    1
    17    62    61    2
    18    81    82    1
    19    59    51   am
    20    59    60    1
    21    87    85    1
    22    51    52    2
    23    82    85    1
    24    82    83    1
    25    61    60    1
    26    61    65   am
    27    14    15    1
    28    14    13    1
    29    60    63    1
    30    66    67    1
    31    66    65    1
    32    66    69    1
    33    85    86    1
    34    11    10    2
    35    67    68    2
    36    83    84    2
    37    63    64    1
    38    70    69    1
    39    70    72    1
    40    71    69    1
    41    13    12    1
    42    12     9    1
    43    10     9    1
    44     9     8    1
    45     8     3   am
    46    88    89    1
    47    90    89    1
    48    90    91    2
    49    92    89    1
    50    92    93    1
    51     3     2    1
    52     3     4    2
    53     2     5    1
    54     2     1    1
    55     5     6    1
    56    94    93   ar
    57    94    96   ar
    58    24    23    1
    59    93    95   ar
    60     6     7    1
    61    23    22    1
    62    47    46    2
    63    96    98   ar
    64     1     7    1
    65    46    45    1
    66    48    45    1
    67    95    97   ar
    68    22    21    1
    69    98    97   ar
    70    21    20    1
    71    45    44    1
    72    35    34    2
    73    20    17    1
    74    16    17    1
    75    34    33    1
    76    17    18    1
    77    36    33    1
    78    36    37    1
    79    33    32    1
    80    37    39   ar
    81    37    38   ar
    82    39    41   ar
    83    18    19    2
    84    18    25   am
    85    38    40   ar
    86    41    42   ar
    87    31    25    1
    88    31    30    1
    89    25    26    1
    90    28    27    2
    91    40    42   ar
    92    42    43    1
    93    27    26    1
    94    26    29    1
    95    30    29    1
