@<TRIPOS>MOLECULE
tmp/1lk6B01.pdb
 165 160 0 0 0
SMALL
GASTEIGER

@<TRIPOS>ATOM
      1  N         38.1630    5.6020    6.2290 N.3    68  ALA68      -0.1231
      2  CA        38.4880    6.4540    7.3510 C.3    68  ALA68       0.1694
      3  C         39.8720    6.1670    7.8660 C.2    68  ALA68       0.2592
      4  O         40.7100    7.0590    7.9180 O.2    68  ALA68      -0.2718
      5  CB        37.4810    6.2670    8.4620 C.3    68  ALA68       0.0304
      6  N         40.1230    4.9220    8.2400 N.am   69  PHE69      -0.1976
      7  CA        41.4280    4.5720    8.7820 C.3    69  PHE69       0.1639
      8  C         42.5610    4.6670    7.7540 C.2    69  PHE69       0.2290
      9  O         43.7360    4.8000    8.1130 O.2    69  PHE69      -0.2864
     10  CB        41.3720    3.1850    9.4470 C.3    69  PHE69       0.0560
     11  CG        40.6030    3.1790   10.7470 C.ar   69  PHE69      -0.0200
     12  CD1       39.2060    3.1880   10.7510 C.ar   69  PHE69      -0.0042
     13  CD2       41.2760    3.2090   11.9760 C.ar   69  PHE69      -0.0042
     14  CE1       38.4890    3.2290   11.9550 C.ar   69  PHE69      -0.0003
     15  CE2       40.5650    3.2500   13.1960 C.ar   69  PHE69      -0.0003
     16  CZ        39.1730    3.2610   13.1830 C.ar   69  PHE69      -0.0000
     17  N         43.5830    8.0620    8.1320 N.3    72  THR72      -0.1218
     18  CA        44.3650    8.2120    9.3550 C.3    72  THR72       0.1862
     19  C         45.7820    7.6710    9.1300 C.2    72  THR72       0.2287
     20  O         46.7760    8.2840    9.5310 O.2    72  THR72      -0.2866
     21  CB        43.7180    7.4340   10.5190 C.3    72  THR72       0.1770
     22  OG1       42.3390    7.7890   10.6210 O.3    72  THR72      -0.2211
     23  CG2       44.3910    7.7680   11.8190 C.3    72  THR72       0.0375
     24  N         28.2010   11.8690   16.0810 N.3   184  ILE184     -0.1245
     25  CA        28.9960   11.9800   17.2950 C.3   184  ILE184      0.1561
     26  C         28.1920   12.1230   18.5830 C.2   184  ILE184      0.2260
     27  O         27.3270   12.9950   18.6960 O.2   184  ILE184     -0.2867
     28  CB        29.9540   13.1730   17.1950 C.3   184  ILE184      0.0252
     29  CG1       30.6420   13.1610   15.8300 C.3   184  ILE184      0.0019
     30  CG2       30.9850   13.1040   18.3110 C.3   184  ILE184      0.0019
     31  CD1       31.5320   14.3480   15.5860 C.3   184  ILE184      0.0001
     32  N         31.5040   12.5220   23.7550 N.3   188  ALA188     -0.1231
     33  CA        32.7890   12.7180   23.0950 C.3   188  ALA188      0.1694
     34  C         32.9470   14.1840   22.7180 C.2   188  ALA188      0.2591
     35  O         32.0360   14.9870   22.9250 O.2   188  ALA188     -0.2718
     36  CB        32.8760   11.8540   21.8600 C.3   188  ALA188      0.0304
     37  N         34.1000   14.5300   22.1590 N.am  189  ILE189     -0.1980
     38  CA        34.3750   15.9100   21.7670 C.3   189  ILE189      0.1595
     39  C         34.3450   16.8990   22.9420 C.2   189  ILE189      0.2287
     40  O         33.3030   17.1200   23.5680 O.2   189  ILE189     -0.2864
     41  CB        33.3860   16.4070   20.6840 C.3   189  ILE189      0.0276
     42  CG1       33.6680   15.7080   19.3550 C.3   189  ILE189      0.0022
     43  CG2       33.5340   17.9030   20.4920 C.3   189  ILE189      0.0022
     44  CD1       32.9850   16.3630   18.1460 C.3   189  ILE189      0.0001
     45  N         39.8460   19.1720   24.9800 N.3   192  LEU192     -0.1231
     46  CA        41.0340   18.3680   24.6890 C.3   192  LEU192      0.1693
     47  C         41.0670   17.8990   23.2310 C.2   192  LEU192      0.2593
     48  O         42.1320   17.6370   22.6700 O.2   192  LEU192     -0.2718
     49  CB        41.0690   17.1450   25.6110 C.3   192  LEU192      0.0284
     50  CG        41.1020   17.3250   27.1330 C.3   192  LEU192      0.0019
     51  CD1       39.9810   18.2410   27.6080 C.3   192  LEU192      0.0001
     52  CD2       40.9730   15.9520   27.7830 C.3   192  LEU192      0.0001
     53  N         39.8870   17.7920   22.6350 N.am  193  THR193     -0.1939
     54  CA        39.7310   17.3450   21.2560 C.3   193  THR193      0.2028
     55  C         40.4780   18.2160   20.2540 C.2   193  THR193      0.2642
     56  O         40.3370   19.4380   20.2510 O.2   193  THR193     -0.2714
     57  CB        38.2350   17.3160   20.8610 C.3   193  THR193      0.1808
     58  OG1       37.5530   16.3230   21.6410 O.3   193  THR193     -0.2208
     59  CG2       38.0760   17.0060   19.3770 C.3   193  THR193      0.0379
     60  N         41.2610   17.5860   19.3880 N.am  194  VAL194     -0.1963
     61  CA        42.0040   18.3510   18.4050 C.3   194  VAL194      0.1727
     62  C         41.6110   18.0200   16.9780 C.2   194  VAL194      0.2616
     63  O         41.6610   18.8780   16.0960 O.2   194  VAL194     -0.2715
     64  CB        43.5120   18.1330   18.5560 C.3   194  VAL194      0.0290
     65  CG1       43.9580   18.5860   19.9310 C.3   194  VAL194      0.0023
     66  CG2       43.8510   16.6800   18.3330 C.3   194  VAL194      0.0023
     67  N         41.2070   16.7800   16.7440 N.am  195  LEU195     -0.1963
     68  CA        40.8370   16.3850   15.3970 C.3   195  LEU195      0.1728
     69  C         39.6850   15.4030   15.3600 C.2   195  LEU195      0.2616
     70  O         39.5950   14.5050   16.1920 O.2   195  LEU195     -0.2715
     71  CB        42.0470   15.7630   14.6930 C.3   195  LEU195      0.0311
     72  CG        41.8590   15.2960   13.2490 C.3   195  LEU195      0.0022
     73  CD1       41.5200   16.5080   12.3510 C.3   195  LEU195      0.0001
     74  CD2       43.1370   14.5940   12.7790 C.3   195  LEU195      0.0001
     75  N         38.7950   15.5970   14.3950 N.am  196  VAL196     -0.1963
     76  CA        37.6660   14.6950   14.1920 C.3   196  VAL196      0.1727
     77  C         37.6110   14.3780   12.6980 C.2   196  VAL196      0.2616
     78  O         37.2080   15.2130   11.9010 O.2   196  VAL196     -0.2715
     79  CB        36.3360   15.3210   14.6220 C.3   196  VAL196      0.0290
     80  CG1       35.1990   14.4260   14.2060 C.3   196  VAL196      0.0023
     81  CG2       36.3070   15.4990   16.1120 C.3   196  VAL196      0.0023
     82  N         38.0540   13.1760   12.3320 N.am  197  LEU197     -0.1977
     83  CA        38.0660   12.7190   10.9400 C.3   197  LEU197      0.1596
     84  C         36.7380   12.0260   10.6620 C.2   197  LEU197      0.2287
     85  O         36.2550   11.2390   11.4700 O.2   197  LEU197     -0.2864
     86  CB        39.2330   11.7610   10.7190 C.3   197  LEU197      0.0297
     87  CG        39.5320   11.2940    9.3000 C.3   197  LEU197      0.0022
     88  CD1       40.9590   10.7920    9.2180 C.3   197  LEU197      0.0001
     89  CD2       38.5640   10.1990    8.9120 C.3   197  LEU197      0.0001
     90  N         33.7220    1.4070   17.1270 N.3   313  LEU313     -0.1245
     91  CA        34.5610    0.5000   16.3650 C.3   313  LEU313      0.1561
     92  C         35.7660    0.0760   17.1810 C.2   313  LEU313      0.2260
     93  O         36.3950   -0.9470   16.8900 O.2   313  LEU313     -0.2867
     94  CB        35.0580    1.1930   15.1010 C.3   313  LEU313      0.0270
     95  CG        34.0830    1.4480   13.9640 C.3   313  LEU313      0.0019
     96  CD1       34.7950    2.2480   12.8990 C.3   313  LEU313      0.0001
     97  CD2       33.5840    0.1270   13.4030 C.3   313  LEU313      0.0001
     98  N         53.2160   18.0160   20.2010 N.3   341  ARG341     -0.1245
     99  CA        51.9550   17.2840   20.3010 C.3   341  ARG341      0.1563
    100  C         52.0850   15.8730   19.7230 C.2   341  ARG341      0.2260
    101  O         51.1300   15.0990   19.7370 O.2   341  ARG341     -0.2867
    102  CB        50.8450   18.0480   19.5640 C.3   341  ARG341      0.0307
    103  CG        49.4650   17.4340   19.6880 C.3   341  ARG341      0.0489
    104  CD        48.6240   18.1030   20.7630 C.3   341  ARG341      0.2205
    105  NE        47.5210   17.2370   21.1810 N.pl3 341  ARG341     -0.0865
    106  CZ        46.4560   17.6400   21.8730 C.cat 341  ARG341      0.5346
    107  NH1       46.3310   18.9120   22.2330 N.pl3 341  ARG341      0.1354
    108  NH2       45.5110   16.7670   22.2120 N.pl3 341  ARG341      0.1354
    109  N         49.8870   11.9440   19.4340 N.3   344  LEU344     -0.1231
    110  CA        48.4650   12.0470   19.1630 C.3   344  LEU344      0.1693
    111  C         47.9460   10.6290   19.0140 C.2   344  LEU344      0.2592
    112  O         48.6150    9.7810   18.4240 O.2   344  LEU344     -0.2718
    113  CB        48.2660   12.8210   17.8590 C.3   344  LEU344      0.0284
    114  CG        46.9850   13.6080   17.5900 C.3   344  LEU344      0.0019
    115  CD1       46.9860   14.0270   16.1340 C.3   344  LEU344      0.0001
    116  CD2       45.7600   12.7690   17.8830 C.3   344  LEU344      0.0001
    117  N         46.7610   10.3650   19.5450 N.am  345  TYR345     -0.1962
    118  CA        46.1960    9.0280   19.4600 C.3   345  TYR345      0.1771
    119  C         44.6790    9.0910   19.2940 C.2   345  TYR345      0.2619
    120  O         44.0380   10.0540   19.7210 O.2   345  TYR345     -0.2715
    121  CB        46.5720    8.2270   20.7180 C.3   345  TYR345      0.0574
    122  CG        45.7810    8.5990   21.9480 C.ar  345  TYR345     -0.0198
    123  CD1       44.5320    8.0330   22.1900 C.ar  345  TYR345     -0.0009
    124  CD2       46.2540    9.5550   22.8430 C.ar  345  TYR345     -0.0009
    125  CE1       43.7690    8.4130   23.2880 C.ar  345  TYR345      0.0417
    126  CE2       45.4940    9.9440   23.9500 C.ar  345  TYR345      0.0417
    127  CZ        44.2530    9.3700   24.1620 C.ar  345  TYR345      0.1957
    128  OH        43.4800    9.7610   25.2280 O.3   345  TYR345     -0.2866
    129  N         44.1110    8.0580   18.6760 N.am  346  VAL346     -0.1963
    130  CA        42.6770    8.0040   18.4530 C.3   346  VAL346      0.1727
    131  C         41.9600    7.6420   19.7340 C.2   346  VAL346      0.2617
    132  O         42.1010    6.5360   20.2360 O.2   346  VAL346     -0.2715
    133  CB        42.3150    6.9650   17.3950 C.3   346  VAL346      0.0290
    134  CG1       40.8000    6.9540   17.1890 C.3   346  VAL346      0.0023
    135  CG2       43.0380    7.2810   16.1010 C.3   346  VAL346      0.0023
    136  N         41.1870    8.5820   20.2560 N.am  347  SER347     -0.1936
    137  CA        40.4510    8.3650   21.4860 C.3   347  SER347      0.2055
    138  C         39.2080    7.5030   21.2810 C.2   347  SER347      0.2643
    139  O         38.8240    6.7390   22.1580 O.2   347  SER347     -0.2714
    140  CB        40.0400    9.7010   22.0890 C.3   347  SER347      0.2130
    141  OG        39.2120    9.4850   23.2150 O.3   347  SER347     -0.2179
    142  N         38.5730    7.6280   20.1240 N.am  348  ASP348     -0.1957
    143  CA        37.3740    6.8500   19.8410 C.3   348  ASP348      0.1840
    144  C         37.0680    6.8080   18.3500 C.2   348  ASP348      0.2622
    145  O         37.5310    7.6490   17.5820 O.2   348  ASP348     -0.2715
    146  CB        36.1740    7.4460   20.5820 C.3   348  ASP348      0.1450
    147  CG        35.6140    6.5130   21.6350 C.2   348  ASP348      0.3671
    148  OD1       35.3210    5.3410   21.3020 O.co2 348  ASP348     -0.2456
    149  OD2       35.4580    6.9600   22.7930 O.co2 348  ASP348     -0.2456
    150  N         36.2840    5.8200   17.9460 N.am  349  ALA349     -0.1963
    151  CA        35.9010    5.6720   16.5500 C.3   349  ALA349      0.1728
    152  C         34.4600    5.1850   16.5280 C.2   349  ALA349      0.2616
    153  O         34.1500    4.1550   17.1090 O.2   349  ALA349     -0.2715
    154  CB        36.8180    4.6600   15.8540 C.3   349  ALA349      0.0334
    155  N         33.5790    5.9300   15.8690 N.am  350  PHE350     -0.1974
    156  CA        32.1740    5.5400   15.7970 C.3   350  PHE350      0.1639
    157  C         31.6880    5.3380   14.3670 C.2   350  PHE350      0.2290
    158  O         32.2450    5.9010   13.4240 O.2   350  PHE350     -0.2864
    159  CB        31.3000    6.5930   16.4770 C.3   350  PHE350      0.0560
    160  CG        31.6340    6.8120   17.9090 C.ar  350  PHE350     -0.0200
    161  CD1       31.3110    5.8590   18.8630 C.ar  350  PHE350     -0.0042
    162  CD2       32.3060    7.9610   18.3060 C.ar  350  PHE350     -0.0042
    163  CE1       31.6540    6.0450   20.2000 C.ar  350  PHE350     -0.0003
    164  CE2       32.6570    8.1610   19.6420 C.ar  350  PHE350     -0.0003
    165  CZ        32.3310    7.2010   20.5910 C.ar  350  PHE350     -0.0000
@<TRIPOS>BOND
     1     1     2    1
     2     2     3    1
     3     2     5    1
     4     8     9    2
     5     8     7    1
     6     3     4    2
     7     3     6   am
     8    17    18    1
     9     6     7    1
    10     7    10    1
    11    89    87    1
    12    19    18    1
    13    19    20    2
    14    88    87    1
    15    87    86    1
    16    18    21    1
    17    10    11    1
    18    21    22    1
    19    21    23    1
    20    84    83    1
    21    84    85    2
    22    86    83    1
    23    11    12   ar
    24    11    13   ar
    25    12    14   ar
    26    83    82    1
    27    78    77    2
    28    14    16   ar
    29    13    15   ar
    30    82    77   am
    31    73    72    1
    32    77    76    1
    33    74    72    1
    34    96    95    1
    35    16    15   ar
    36    72    71    1
    37    97    95    1
    38   158   157    2
    39    95    94    1
    40    76    75    1
    41    76    79    1
    42    80    79    1
    43   157   156    1
    44    75    69   am
    45    79    81    1
    46    71    68    1
    47    94    91    1
    48    69    68    1
    49    69    70    2
    50    68    67    1
    51    31    29    1
    52   156   155    1
    53   156   159    1
    54    29    28    1
    55   154   151    1
    56   155   152   am
    57    24    25    1
    58    63    62    2
    59   135   133    1
    60   115   114    1
    61    91    90    1
    62    91    92    1
    63   159   160    1
    64   152   151    1
    65   152   153    2
    66   151   150    1
    67    67    62   am
    68    93    92    2
    69    62    61    1
    70   134   133    1
    71    28    25    1
    72    28    30    1
    73    25    26    1
    74   133   130    1
    75   145   144    2
    76   114   113    1
    77   114   116    1
    78   113   110    1
    79   160   162   ar
    80   160   161   ar
    81   150   144   am
    82    44    42    1
    83   162   164   ar
    84    66    64    1
    85   144   143    1
    86    61    64    1
    87    61    60    1
    88   112   111    2
    89   130   129    1
    90   130   131    1
    91    64    65    1
    92    26    27    2
    93   129   119   am
    94   161   163   ar
    95   111   110    1
    96   111   117   am
    97   110   109    1
    98   119   118    1
    99   119   120    2
   100    42    41    1
   101    59    57    1
   102    60    55   am
   103   118   117    1
   104   118   121    1
   105   102   103    1
   106   102    99    1
   107   164   165   ar
   108   103   104    1
   109   100   101    2
   110   100    99    1
   111   131   132    2
   112   131   136   am
   113   143   142    1
   114   143   146    1
   115   142   138   am
   116   163   165   ar
   117    98    99    1
   118    56    55    2
   119    55    54    1
   120   136   137    1
   121    43    41    1
   122   146   147    1
   123    41    38    1
   124   121   122    1
   125   104   105    1
   126    57    54    1
   127    57    58    1
   128   105   106    2
   129    54    53    1
   130   138   137    1
   131   138   139    2
   132   148   147   ar
   133   137   140    1
   134   147   149   ar
   135    38    37    1
   136    38    39    1
   137    36    33    1
   138   106   108    1
   139   106   107    1
   140   122   123   ar
   141   122   124   ar
   142   140   141    1
   143    37    34   am
   144   123   125   ar
   145    53    47   am
   146    48    47    2
   147    34    35    2
   148    34    33    1
   149   124   126   ar
   150    39    40    2
   151    33    32    1
   152    47    46    1
   153   125   127   ar
   154   126   127   ar
   155   127   128    1
   156    46    45    1
   157    46    49    1
   158    49    50    1
   159    50    51    1
   160    50    52    1
