@<TRIPOS>MOLECULE
tmp/1lk7D00.pdb
 127 120 0 0 0
SMALL
GASTEIGER

@<TRIPOS>ATOM
      1  N         -0.7970  -17.0590  127.7720 N.3     7  LYS7       -0.1245
      2  CA        -0.1130  -16.6060  126.5660 C.3     7  LYS7        0.1561
      3  C          1.3910  -16.7480  126.7400 C.2     7  LYS7        0.2260
      4  O          2.0900  -17.2510  125.8740 O.2     7  LYS7       -0.2867
      5  CB        -0.4780  -15.1430  126.2730 C.3     7  LYS7        0.0271
      6  CG        -1.8840  -14.9470  125.7590 C.3     7  LYS7        0.0035
      7  CD        -2.2100  -13.4670  125.6200 C.3     7  LYS7        0.0206
      8  CE        -3.6090  -13.2190  125.0250 C.3     7  LYS7        0.1093
      9  NZ        -3.9080  -11.7720  125.1250 N.3     7  LYS7       -0.1314
     10  N          1.7550  -11.2950  114.5410 N.3    28  THR28      -0.1203
     11  CA         1.0910  -10.0960  115.0490 C.3    28  THR28       0.1994
     12  C          0.1840  -10.4150  116.2150 C.2    28  THR28       0.2618
     13  O         -0.3590  -11.5130  116.2900 O.2    28  THR28      -0.2717
     14  CB         0.2640   -9.4540  113.8830 C.3    28  THR28       0.1784
     15  OG1        1.1710   -9.0500  112.8630 O.3    28  THR28      -0.2211
     16  CG2       -0.4210   -8.1850  114.2840 C.3    28  THR28       0.0376
     17  N          0.0780   -9.4670  117.1450 N.am   29  GLY29      -0.1942
     18  CA        -0.7990   -9.5900  118.2990 C.3    29  GLY29       0.2014
     19  C         -0.0300   -9.7880  119.5990 C.2    29  GLY29       0.2640
     20  O          1.1920  -10.0070  119.5900 O.2    29  GLY29      -0.2714
     21  N         -0.7690   -9.7440  120.7050 N.am   30  SER30      -0.1935
     22  CA        -0.2150   -9.8730  122.0550 C.3    30  SER30       0.2055
     23  C          0.3980  -11.2360  122.3850 C.2    30  SER30       0.2644
     24  O          1.3790  -11.2820  123.0900 O.2    30  SER30      -0.2714
     25  CB        -1.3210   -9.5470  123.0980 C.3    30  SER30       0.2130
     26  OG        -2.3750  -10.5110  123.0660 O.3    30  SER30      -0.2179
     27  N         -0.1570  -12.3510  121.9320 N.am   31  THR31      -0.1936
     28  CA         0.4450  -13.6310  122.3070 C.3    31  THR31       0.2028
     29  C          1.8480  -13.7060  121.7120 C.2    31  THR31       0.2642
     30  O          2.8290  -14.0510  122.3790 O.2    31  THR31      -0.2714
     31  CB        -0.3600  -14.8150  121.8080 C.3    31  THR31       0.1808
     32  OG1       -1.7160  -14.6850  122.2380 O.3    31  THR31      -0.2208
     33  CG2        0.1070  -16.0990  122.4770 C.3    31  THR31       0.0379
     34  N          1.9330  -13.3840  120.4320 N.am   32  THR32      -0.1950
     35  CA         3.1990  -13.4180  119.7360 C.3    32  THR32       0.1897
     36  C          4.1550  -12.3440  120.2580 C.2    32  THR32       0.2313
     37  O          5.3570  -12.5150  120.1620 O.2    32  THR32      -0.2863
     38  CB         2.9740  -13.3030  118.2110 C.3    32  THR32       0.1794
     39  OG1        2.1180  -14.3740  117.7820 O.3    32  THR32      -0.2208
     40  CG2        4.2670  -13.5700  117.4320 C.3    32  THR32       0.0378
     41  N          2.9370  -17.0420  115.0910 N.3    85  ASP85      -0.1225
     42  CA         1.8680  -16.0700  115.0850 C.3    85  ASP85       0.1805
     43  C          0.7390  -16.6280  115.8930 C.2    85  ASP85       0.2598
     44  O          0.7370  -17.8260  116.2500 O.2    85  ASP85      -0.2718
     45  CB         1.4120  -15.9080  113.6430 C.3    85  ASP85       0.1424
     46  CG         0.7810  -14.5430  113.3530 C.2    85  ASP85       0.3668
     47  OD1        0.4110  -13.8030  114.3020 O.co2  85  ASP85      -0.2456
     48  OD2        0.5990  -14.1710  112.1760 O.co2  85  ASP85      -0.2456
     49  N         -0.2530  -15.7860  116.1260 N.am   86  GLY86      -0.1942
     50  CA        -1.4220  -16.1780  116.8840 C.3    86  GLY86       0.2014
     51  C         -2.5850  -16.4750  115.9820 C.2    86  GLY86       0.2639
     52  O         -2.4330  -16.6620  114.7720 O.2    86  GLY86      -0.2714
     53  N         -3.7520  -16.5390  116.5880 N.am   87  ALA87      -0.1963
     54  CA        -4.9930  -16.8310  115.9020 C.3    87  ALA87       0.1728
     55  C         -6.1610  -16.4040  116.7780 C.2    87  ALA87       0.2616
     56  O         -6.0350  -16.3210  118.0010 O.2    87  ALA87      -0.2715
     57  CB        -5.1010  -18.3140  115.6310 C.3    87  ALA87       0.0334
     58  N         -7.2920  -16.1490  116.1240 N.am   88  ASP88      -0.1971
     59  CA        -8.5160  -15.7700  116.7860 C.3    88  ASP88       0.1709
     60  C         -9.3010  -17.0430  117.1240 C.2    88  ASP88       0.2293
     61  O        -10.0060  -17.0740  118.1240 O.2    88  ASP88      -0.2864
     62  CB        -9.3530  -14.8680  115.8880 C.3    88  ASP88       0.1436
     63  CG        -8.6240  -13.6010  115.5060 C.2    88  ASP88       0.3671
     64  OD1       -7.8770  -13.0690  116.3590 O.co2  88  ASP88      -0.2456
     65  OD2       -8.7170  -13.0880  114.3770 O.co2  88  ASP88      -0.2456
     66  N         -7.9130  -15.8100  111.4890 N.3    98  LYS98      -0.1231
     67  CA        -6.9730  -14.7810  111.9110 C.3    98  LYS98       0.1693
     68  C         -7.4680  -13.4480  111.3680 C.2    98  LYS98       0.2593
     69  O         -8.3840  -13.4240  110.5380 O.2    98  LYS98      -0.2718
     70  CB        -5.5510  -15.0640  111.3650 C.3    98  LYS98       0.0285
     71  CG        -4.7870  -16.1600  112.0790 C.3    98  LYS98       0.0035
     72  CD        -3.3940  -16.4520  111.4590 C.3    98  LYS98       0.0206
     73  CE        -2.3970  -15.2840  111.5310 C.3    98  LYS98       0.1093
     74  NZ        -2.3000  -14.6880  112.8930 N.3    98  LYS98      -0.1314
     75  N         -6.8820  -12.3470  111.8350 N.am   99  GLY99      -0.1942
     76  CA        -7.1860  -11.0320  111.2950 C.3    99  GLY99       0.2014
     77  C         -7.8360   -9.9890  112.1910 C.2    99  GLY99       0.2639
     78  O         -8.0890   -8.8700  111.7190 O.2    99  GLY99      -0.2714
     79  N         -8.1450  -10.3360  113.4400 N.am  100  ARG100     -0.1963
     80  CA        -8.5840   -9.3490  114.4290 C.3   100  ARG100      0.1729
     81  C         -7.6280   -8.1640  114.3130 C.2   100  ARG100      0.2616
     82  O         -8.0450   -7.0050  114.2530 O.2   100  ARG100     -0.2715
     83  CB        -8.5070   -9.9350  115.8410 C.3   100  ARG100      0.0348
     84  CG        -8.9170   -8.9860  117.0180 C.3   100  ARG100      0.0492
     85  CD        -8.6630   -9.6740  118.3690 C.3   100  ARG100      0.2205
     86  NE        -8.9480   -8.8980  119.5850 N.pl3 100  ARG100     -0.0865
     87  CZ       -10.1140   -8.9500  120.2620 C.cat 100  ARG100      0.5346
     88  NH1      -11.1250   -9.7090  119.8360 N.pl3 100  ARG100      0.1354
     89  NH2      -10.2790   -8.2340  121.3670 N.pl3 100  ARG100      0.1354
     90  N         -6.3320   -8.4500  114.2350 N.am  101  GLY101     -0.1955
     91  CA        -5.3450   -7.3830  114.1190 C.3   101  GLY101      0.1869
     92  C         -5.2220   -6.6220  112.8080 C.2   101  GLY101      0.2309
     93  O         -4.4720   -5.6480  112.7300 O.2   101  GLY101     -0.2863
     94  N         -3.8160   -7.5460  110.0620 N.3   103  ALA103     -0.1245
     95  CA        -2.5680   -7.8440  109.3550 C.3   103  ALA103      0.1562
     96  C         -2.6010   -9.1550  108.5190 C.2   103  ALA103      0.2260
     97  O         -1.5520   -9.6830  108.0760 O.2   103  ALA103     -0.2867
     98  CB        -1.4680   -7.9410  110.3660 C.3   103  ALA103      0.0290
     99  N          0.4960  -11.6050  106.9240 N.3   107  GLU107     -0.1245
    100  CA         0.5990  -12.8410  107.6840 C.3   107  GLU107      0.1567
    101  C          0.5420  -14.0440  106.7750 C.2   107  GLU107      0.2260
    102  O          1.4180  -14.8920  106.8590 O.2   107  GLU107     -0.2867
    103  CB        -0.4960  -12.9500  108.7470 C.3   107  GLU107      0.0388
    104  CG        -0.2360  -12.0380  109.9220 C.3   107  GLU107      0.1160
    105  CD        -1.4590  -11.9060  110.7960 C.2   107  GLU107      0.3649
    106  OE1       -2.6080  -12.0030  110.2850 O.co2 107  GLU107     -0.2457
    107  OE2       -1.2480  -11.7990  112.0030 O.co2 107  GLU107     -0.2457
    108  N         -8.8800  -20.0230  125.1840 N.3   124  ARG124     -0.1231
    109  CA       -10.1010  -19.3780  124.6720 C.3   124  ARG124      0.1694
    110  C        -10.2490  -19.5720  123.1640 C.2   124  ARG124      0.2591
    111  O        -11.3610  -19.6140  122.6230 O.2   124  ARG124     -0.2718
    112  CB       -10.0910  -17.8560  124.9450 C.3   124  ARG124      0.0321
    113  CG       -10.1290  -17.4570  126.3980 C.3   124  ARG124      0.0489
    114  CD        -9.7880  -15.9930  126.6670 C.3   124  ARG124      0.2205
    115  NE        -8.5880  -15.5760  125.9400 N.pl3 124  ARG124     -0.0865
    116  CZ        -8.4130  -14.3770  125.3950 C.cat 124  ARG124      0.5346
    117  NH1       -9.3430  -13.4380  125.5090 N.pl3 124  ARG124      0.1354
    118  NH2       -7.2990  -14.1160  124.7260 N.pl3 124  ARG124      0.1354
    119  N         -9.1190  -19.6810  122.4700 N.am  125  LYS125     -0.1980
    120  CA        -9.1210  -19.7660  121.0050 C.3   125  LYS125      0.1596
    121  C         -9.6040  -21.0830  120.3890 C.2   125  LYS125      0.2287
    122  O        -10.0600  -21.1100  119.2510 O.2   125  LYS125     -0.2864
    123  CB        -7.7180  -19.4630  120.4840 C.3   125  LYS125      0.0298
    124  CG        -7.3970  -17.9760  120.3860 C.3   125  LYS125      0.0038
    125  CD        -7.2790  -17.2710  121.7280 C.3   125  LYS125      0.0206
    126  CE        -7.2140  -15.7620  121.5320 C.3   125  LYS125      0.1093
    127  NZ        -5.8590  -15.3400  121.0260 N.3   125  LYS125     -0.1314
@<TRIPOS>BOND
     1   101   102    2
     2   101   100    1
     3    99   100    1
     4   100   103    1
     5    97    96    2
     6    96    95    1
     7   103   104    1
     8    95    94    1
     9    95    98    1
    10   104   105    1
    11   106   105   ar
    12    69    68    2
    13   105   107   ar
    14    76    75    1
    15    76    77    1
    16    70    67    1
    17    70    71    1
    18    68    75   am
    19    68    67    1
    20    72    73    1
    21    72    71    1
    22    66    67    1
    23    73    74    1
    24    78    77    2
    25    48    46   ar
    26    77    79   am
    27    93    92    2
    28    92    91    1
    29    15    14    1
    30    46    45    1
    31    46    47   ar
    32    79    80    1
    33    45    42    1
    34    14    16    1
    35    14    11    1
    36    91    90    1
    37    90    81   am
    38    82    81    2
    39    81    80    1
    40    65    63   ar
    41    80    83    1
    42    10    11    1
    43    52    51    2
    44    11    12    1
    45    42    41    1
    46    42    43    1
    47    63    62    1
    48    63    64   ar
    49    57    54    1
    50    83    84    1
    51    62    59    1
    52    43    49   am
    53    43    44    2
    54    54    53    1
    55    54    55    1
    56    51    53   am
    57    51    50    1
    58    58    55   am
    59    58    59    1
    60    49    50    1
    61    12    13    2
    62    12    17   am
    63    55    56    2
    64    59    60    1
    65    84    85    1
    66    60    61    2
    67    17    18    1
    68    40    38    1
    69    39    38    1
    70    38    35    1
    71    18    19    1
    72    85    86    1
    73   122   121    2
    74    86    87    2
    75    20    19    2
    76    19    21   am
    77    35    36    1
    78    35    34    1
    79    88    87    1
    80    37    36    2
    81    87    89    1
    82   124   123    1
    83   124   125    1
    84   121   120    1
    85    34    29   am
    86   123   120    1
    87    21    22    1
    88   120   119    1
    89   127   126    1
    90   126   125    1
    91    29    28    1
    92    29    30    2
    93    31    32    1
    94    31    28    1
    95    31    33    1
    96    27    28    1
    97    27    23   am
    98    22    23    1
    99    22    25    1
   100    23    24    2
   101   119   110   am
   102   111   110    2
   103    26    25    1
   104   110   109    1
   105   109   112    1
   106   109   108    1
   107   118   116    1
   108   112   113    1
   109     8     9    1
   110     8     7    1
   111   116   117    1
   112   116   115    2
   113     7     6    1
   114     6     5    1
   115     4     3    2
   116   115   114    1
   117     5     2    1
   118   113   114    1
   119     2     3    1
   120     2     1    1
