@<TRIPOS>MOLECULE
tmp/1lkcA00.pdb
 118 110 0 0 0
SMALL
GASTEIGER

@<TRIPOS>ATOM
      1  N         28.3190   25.6830   61.4910 N.3    77  GLY77      -0.1210
      2  CA        27.8290   25.8280   62.8470 C.3    77  GLY77       0.1956
      3  C         26.8550   27.0140   62.8620 C.2    77  GLY77       0.2612
      4  O         26.9430   27.9130   62.0060 O.2    77  GLY77      -0.2717
      5  N         25.8850   27.0110   63.7780 N.am   78  GLU78      -0.1965
      6  CA        25.0040   28.1990   63.8800 C.3    78  GLU78       0.1733
      7  C         25.8830   29.4510   64.2010 C.2    78  GLU78       0.2617
      8  O         25.5230   30.6020   63.9430 O.2    78  GLU78      -0.2715
      9  CB        24.0230   28.0240   65.0170 C.3    78  GLU78       0.0429
     10  CG        22.9360   29.1160   64.9580 C.3    78  GLU78       0.1163
     11  CD        22.0340   29.0850   66.1570 C.2    78  GLU78       0.3649
     12  OE1       21.3000   28.0890   66.3020 O.co2  78  GLU78      -0.2457
     13  OE2       22.0350   30.0640   66.9530 O.co2  78  GLU78      -0.2457
     14  N         27.0470   29.1900   64.7710 N.am   79  THR79      -0.1951
     15  CA        27.9820   30.2630   65.0990 C.3    79  THR79       0.1897
     16  C         28.2690   31.0510   63.8060 C.2    79  THR79       0.2313
     17  O         28.3100   32.3010   63.8070 O.2    79  THR79      -0.2863
     18  CB        29.3150   29.6750   65.6530 C.3    79  THR79       0.1794
     19  OG1       29.0720   29.1400   66.9700 O.3    79  THR79      -0.2208
     20  CG2       30.3860   30.7840   65.7840 C.3    79  THR79       0.0378
     21  N         25.4090   33.2910   62.9260 N.3    82  ILE82      -0.1245
     22  CA        25.3460   34.5190   63.7740 C.3    82  ILE82       0.1561
     23  C         26.2550   35.5930   63.1450 C.2    82  ILE82       0.2260
     24  O         25.8600   36.7590   63.0330 O.2    82  ILE82      -0.2867
     25  CB        25.8540   34.2200   65.2130 C.3    82  ILE82       0.0252
     26  CG1       24.7770   33.3740   65.9760 C.3    82  ILE82       0.0019
     27  CG2       26.1550   35.5360   65.9530 C.3    82  ILE82       0.0019
     28  CD1       25.2810   32.8130   67.3370 C.3    82  ILE82       0.0001
     29  N         23.8770   34.7850   75.2000 N.3   101  PHE101     -0.1241
     30  CA        24.9630   34.1350   74.4770 C.3   101  PHE101      0.1605
     31  C         26.0020   35.1980   74.0000 C.2   101  PHE101      0.2264
     32  O         25.6630   36.1020   73.2700 O.2   101  PHE101     -0.2867
     33  CB        24.3650   33.3560   73.2880 C.3   101  PHE101      0.0534
     34  CG        25.3210   32.4170   72.6400 C.ar  101  PHE101     -0.0203
     35  CD1       25.8680   31.3530   73.3590 C.ar  101  PHE101     -0.0042
     36  CD2       25.7180   32.6000   71.2940 C.ar  101  PHE101     -0.0042
     37  CE1       26.8030   30.4820   72.7640 C.ar  101  PHE101     -0.0003
     38  CE2       26.6460   31.7420   70.7010 C.ar  101  PHE101     -0.0003
     39  CZ        27.1940   30.6800   71.4380 C.ar  101  PHE101     -0.0000
     40  N         17.2980   35.1350   72.4850 N.3   146  CYS146     -0.1235
     41  CA        17.7070   33.7220   72.4630 C.3   146  CYS146      0.1677
     42  C         16.4500   33.0100   72.9670 C.2   146  CYS146      0.2270
     43  O         16.0070   33.2930   74.0750 O.2   146  CYS146     -0.2867
     44  CB        18.8220   33.5330   73.4560 C.3   146  CYS146      0.0956
     45  SG        19.8060   32.1390   73.1400 S.3   146  CYS146     -0.0801
     46  N         20.2240   31.2360   76.7750 N.3   150  ASN150     -0.1240
     47  CA        21.4120   30.5050   77.2020 C.3   150  ASN150      0.1653
     48  C         22.0570   31.6440   77.9710 C.2   150  ASN150      0.2266
     49  O         22.4080   32.6410   77.3630 O.2   150  ASN150     -0.2867
     50  CB        22.2490   30.0910   75.9680 C.3   150  ASN150      0.1155
     51  CG        23.5390   29.4330   76.3520 C.2   150  ASN150      0.2627
     52  OD1       23.9940   29.5970   77.4900 O.2   150  ASN150     -0.2716
     53  ND2       24.1750   28.7200   75.4020 N.am  150  ASN150     -0.0877
     54  N         17.3100   33.3000   68.2460 N.3   178  ASP178     -0.1239
     55  CA        18.2320   32.1900   68.2630 C.3   178  ASP178      0.1674
     56  C         17.5160   30.9740   68.8690 C.2   178  ASP178      0.2266
     57  O         17.3260   30.8830   70.0980 O.2   178  ASP178     -0.2867
     58  CB        19.4530   32.5900   69.0960 C.3   178  ASP178      0.1410
     59  CG        20.5550   31.5590   69.0560 C.2   178  ASP178      0.3668
     60  OD1       20.2170   30.3730   68.8490 O.co2 178  ASP178     -0.2456
     61  OD2       21.7440   31.9350   69.2410 O.co2 178  ASP178     -0.2456
     62  N         18.6120   27.7820   68.8220 N.3   180  ALA180     -0.1231
     63  CA        19.5420   26.6830   68.9520 C.3   180  ALA180      0.1694
     64  C         19.0090   25.4760   69.7340 C.2   180  ALA180      0.2592
     65  O         19.2880   24.3120   69.3950 O.2   180  ALA180     -0.2718
     66  CB        20.8540   27.1800   69.6490 C.3   180  ALA180      0.0304
     67  N         18.2450   25.7470   70.7760 N.am  181  PHE181     -0.1976
     68  CA        17.7550   24.6300   71.6410 C.3   181  PHE181      0.1639
     69  C         16.2510   24.4150   71.5370 C.2   181  PHE181      0.2290
     70  O         15.6970   23.6240   72.2880 O.2   181  PHE181     -0.2864
     71  CB        18.0710   24.9640   73.0980 C.3   181  PHE181      0.0560
     72  CG        19.5260   24.8710   73.4500 C.ar  181  PHE181     -0.0200
     73  CD1       20.3220   25.9990   73.4770 C.ar  181  PHE181     -0.0042
     74  CD2       20.0800   23.6620   73.7920 C.ar  181  PHE181     -0.0042
     75  CE1       21.6350   25.9250   73.8410 C.ar  181  PHE181     -0.0003
     76  CE2       21.4100   23.5540   74.1610 C.ar  181  PHE181     -0.0003
     77  CZ        22.2020   24.7110   74.1870 C.ar  181  PHE181     -0.0000
     78  N         20.5160   25.3190   64.9860 N.3   206  SER206     -0.1217
     79  CA        21.7570   24.5850   65.0630 C.3   206  SER206      0.1889
     80  C         21.4410   23.0920   65.0920 C.2   206  SER206      0.2288
     81  O         20.4360   22.7090   65.7180 O.2   206  SER206     -0.2866
     82  CB        22.4440   24.8640   66.3850 C.3   206  SER206      0.2089
     83  OG        23.6280   24.1130   66.4270 O.3   206  SER206     -0.2183
     84  N         23.9070   21.1740   66.1500 N.3   208  THR208     -0.1203
     85  CA        24.9120   20.8150   67.1300 C.3   208  THR208      0.1994
     86  C         24.4580   20.1060   68.4110 C.2   208  THR208      0.2617
     87  O         24.9520   19.0180   68.7380 O.2   208  THR208     -0.2717
     88  CB        25.7150   22.0960   67.6000 C.3   208  THR208      0.1784
     89  OG1       26.6620   22.4180   66.5780 O.3   208  THR208     -0.2211
     90  CG2       26.4800   21.8140   68.9010 C.3   208  THR208      0.0376
     91  N         23.5240   20.7220   69.1240 N.am  209  LYS209     -0.1979
     92  CA        23.0990   20.1540   70.3950 C.3   209  LYS209      0.1596
     93  C         22.0950   19.0510   70.1820 C.2   209  LYS209      0.2287
     94  O         22.2400   17.9490   70.7140 O.2   209  LYS209     -0.2864
     95  CB        22.4720   21.2090   71.2880 C.3   209  LYS209      0.0298
     96  CG        23.5140   22.1230   71.9810 C.3   209  LYS209      0.0038
     97  CD        23.9090   23.2520   71.1220 C.3   209  LYS209      0.0206
     98  CE        25.0860   24.1040   71.7230 C.3   209  LYS209      0.1093
     99  NZ        24.7340   25.4620   71.3120 N.3   209  LYS209     -0.1314
    100  N         30.1220   20.7080   62.8650 N.3   217  ARG217     -0.1231
    101  CA        29.7250   22.1120   62.6400 C.3   217  ARG217      0.1694
    102  C         28.6220   22.3600   61.6150 C.2   217  ARG217      0.2591
    103  O         28.8990   22.5460   60.4230 O.2   217  ARG217     -0.2718
    104  CB        30.9190   23.0040   62.2450 C.3   217  ARG217      0.0321
    105  CG        32.2440   22.7100   62.9990 C.3   217  ARG217      0.0489
    106  CD        32.1430   22.9120   64.5370 C.3   217  ARG217      0.2205
    107  NE        31.6980   24.2660   64.8350 N.pl3 217  ARG217     -0.0865
    108  CZ        30.6110   24.5890   65.5270 C.cat 217  ARG217      0.5346
    109  NH1       29.8150   23.6520   66.0490 N.pl3 217  ARG217      0.1354
    110  NH2       30.2710   25.8800   65.6440 N.pl3 217  ARG217      0.1354
    111  N         27.3790   22.4000   62.0680 N.am  218  LEU218     -0.1980
    112  CA        26.3090   22.6940   61.1520 C.3   218  LEU218      0.1596
    113  C         25.1330   23.4200   61.8020 C.2   218  LEU218      0.2287
    114  O         24.5680   22.9870   62.8100 O.2   218  LEU218     -0.2864
    115  CB        25.7850   21.4320   60.4460 C.3   218  LEU218      0.0297
    116  CG        24.7620   21.7760   59.3460 C.3   218  LEU218      0.0022
    117  CD1       25.4420   22.4920   58.1470 C.3   218  LEU218      0.0001
    118  CD2       24.1780   20.4550   58.8290 C.3   218  LEU218      0.0001
@<TRIPOS>BOND
     1   117   116    1
     2   118   116    1
     3   116   115    1
     4   103   102    2
     5   115   112    1
     6   112   113    1
     7   112   111    1
     8     1     2    1
     9   102   111   am
    10   102   101    1
    11   113   114    2
    12     4     3    2
    13   104   101    1
    14   104   105    1
    15   101   100    1
    16     2     3    1
    17     3     5   am
    18    21    22    1
    19   105   106    1
    20    24    23    2
    21    23    22    1
    22    22    25    1
    23     5     6    1
    24    16    17    2
    25    16    15    1
    26     6     7    1
    27     6     9    1
    28     8     7    2
    29     7    14   am
    30   106   107    1
    31    14    15    1
    32   107   108    2
    33    10     9    1
    34    10    11    1
    35    78    79    1
    36    79    80    1
    37    79    82    1
    38    80    81    2
    39    15    18    1
    40    25    27    1
    41    25    26    1
    42   108   110    1
    43   108   109    1
    44    18    20    1
    45    18    19    1
    46    26    28    1
    47    84    85    1
    48    11    12   ar
    49    11    13   ar
    50    82    83    1
    51    89    88    1
    52    85    88    1
    53    85    86    1
    54    88    90    1
    55    54    55    1
    56    55    56    1
    57    55    58    1
    58    86    87    2
    59    86    91   am
    60    62    63    1
    61    60    59   ar
    62    56    57    2
    63    63    66    1
    64    63    64    1
    65    59    58    1
    66    59    61   ar
    67    91    92    1
    68    65    64    2
    69    64    67   am
    70    93    92    1
    71    93    94    2
    72    92    95    1
    73    38    36   ar
    74    38    39   ar
    75    67    68    1
    76    97    98    1
    77    97    96    1
    78    95    96    1
    79    36    34   ar
    80    99    98    1
    81    39    37   ar
    82    69    68    1
    83    69    70    2
    84    68    71    1
    85    41    40    1
    86    41    42    1
    87    41    44    1
    88    34    33    1
    89    34    35   ar
    90    37    35   ar
    91    42    43    2
    92    71    72    1
    93    45    44    1
    94    32    31    2
    95    33    30    1
    96    72    73   ar
    97    72    74   ar
    98    73    75   ar
    99    74    76   ar
   100    75    77   ar
   101    31    30    1
   102    76    77   ar
   103    30    29    1
   104    53    51   am
   105    50    51    1
   106    50    47    1
   107    51    52    2
   108    46    47    1
   109    47    48    1
   110    49    48    2
