@<TRIPOS>MOLECULE
tmp/1lkdA02.pdb
 124 121 0 0 0
SMALL
GASTEIGER

@<TRIPOS>ATOM
      1  N         30.3060   19.7540   21.4440 N.3   174  MET174     -0.1230
      2  CA        30.6470   20.7720   20.4560 C.3   174  MET174      0.1702
      3  C         32.0680   21.2920   20.5780 C.2   174  MET174      0.2592
      4  O         32.4300   21.8700   21.5960 O.2   174  MET174     -0.2718
      5  CB        29.6880   21.9540   20.5950 C.3   174  MET174      0.0401
      6  CG        28.2180   21.5820   20.5620 C.3   174  MET174      0.0596
      7  SD        27.6160   21.3000   18.8990 S.3   174  MET174     -0.1393
      8  CE        25.9010   21.7500   19.0940 C.3   174  MET174      0.0692
      9  N         32.8630   21.0990   19.5310 N.am  175  LYS175     -0.1966
     10  CA        34.2400   21.5760   19.5270 C.3   175  LYS175      0.1728
     11  C         34.2520   23.0720   19.2360 C.2   175  LYS175      0.2616
     12  O         33.7780   23.5170   18.1910 O.2   175  LYS175     -0.2715
     13  CB        35.0600   20.8480   18.4590 C.3   175  LYS175      0.0311
     14  CG        35.2140   19.3530   18.6840 C.3   175  LYS175      0.0038
     15  CD        36.0990   18.7320   17.6100 C.3   175  LYS175      0.0206
     16  CE        36.2830   17.2370   17.8250 C.3   175  LYS175      0.1093
     17  NZ        35.0010   16.4860   17.7200 N.3   175  LYS175     -0.1314
     18  N         34.7860   23.8470   20.1700 N.am  176  MET176     -0.1977
     19  CA        34.8680   25.2910   20.0060 C.3   176  MET176      0.1605
     20  C         36.2950   25.7540   20.2590 C.2   176  MET176      0.2287
     21  O         36.5410   26.6390   21.0780 O.2   176  MET176     -0.2864
     22  CB        33.9130   25.9840   20.9740 C.3   176  MET176      0.0413
     23  CG        32.4490   25.7170   20.6820 C.3   176  MET176      0.0598
     24  SD        31.3760   26.5670   21.8390 S.3   176  MET176     -0.1393
     25  CE        31.7460   28.2720   21.4350 C.3   176  MET176      0.0692
     26  N         27.0960   28.3380   25.7100 N.3   201  PHE201     -0.1228
     27  CA        27.7940   29.0320   24.6300 C.3   201  PHE201      0.1721
     28  C         28.1080   30.4660   25.0330 C.2   201  PHE201      0.2437
     29  O         27.4110   31.0520   25.8580 O.2   201  PHE201     -0.2733
     30  CB        26.9360   29.0760   23.3590 C.3   201  PHE201      0.0547
     31  CG        26.6380   27.7260   22.7630 C.ar  201  PHE201     -0.0202
     32  CD1       27.6110   26.7340   22.7160 C.ar  201  PHE201     -0.0042
     33  CD2       25.3890   27.4660   22.2030 C.ar  201  PHE201     -0.0042
     34  CE1       27.3510   25.5000   22.1170 C.ar  201  PHE201     -0.0003
     35  CE2       25.1160   26.2340   21.5980 C.ar  201  PHE201     -0.0003
     36  CZ        26.1030   25.2510   21.5560 C.ar  201  PHE201     -0.0000
     37  N         29.1620   31.0520   24.4480 N.am  202  PRO202     -0.2718
     38  CA        29.5240   32.4340   24.7790 C.3   202  PRO202      0.1535
     39  C         28.6990   33.4360   23.9700 C.2   202  PRO202      0.2598
     40  O         29.2390   34.1710   23.1440 O.2   202  PRO202     -0.2715
     41  CB        31.0070   32.4860   24.4320 C.3   202  PRO202      0.0310
     42  CG        31.0900   31.5840   23.2410 C.3   202  PRO202      0.0237
     43  CD        30.2250   30.4060   23.6530 C.3   202  PRO202      0.0939
     44  N         27.3890   33.4520   24.2100 N.am  203  LEU203     -0.1978
     45  CA        26.4740   34.3540   23.5090 C.3   203  LEU203      0.1596
     46  C         25.7390   35.2460   24.5080 C.2   203  LEU203      0.2287
     47  O         25.3850   34.8070   25.5980 O.2   203  LEU203     -0.2864
     48  CB        25.4530   33.5500   22.6980 C.3   203  LEU203      0.0297
     49  CG        25.9870   32.5800   21.6400 C.3   203  LEU203      0.0022
     50  CD1       24.8270   31.7860   21.0560 C.3   203  LEU203      0.0001
     51  CD2       26.7100   33.3440   20.5450 C.3   203  LEU203      0.0001
     52  N         20.3020   30.6400   21.2300 N.3   208  HIS208     -0.1241
     53  CA        21.1870   30.7160   20.0780 C.3   208  HIS208      0.1621
     54  C         20.2930   30.8350   18.8480 C.2   208  HIS208      0.2264
     55  O         20.5330   31.6570   17.9670 O.2   208  HIS208     -0.2867
     56  CB        22.0590   29.4580   19.9990 C.3   208  HIS208      0.0745
     57  CG        22.8810   29.3670   18.7510 C.ar  208  HIS208      0.0817
     58  ND1       22.3900   28.8460   17.5730 N.ar  208  HIS208     -0.2268
     59  CD2       24.1500   29.7600   18.4890 C.ar  208  HIS208      0.1154
     60  CE1       23.3200   28.9220   16.6390 C.ar  208  HIS208      0.1986
     61  NE2       24.3980   29.4740   17.1680 N.ar  208  HIS208     -0.2212
     62  N         23.8130   32.1320    7.6750 N.3   234  THR234     -0.1203
     63  CA        24.9150   31.9470    8.6130 C.3   234  THR234      0.1994
     64  C         25.5120   30.5500    8.4790 C.2   234  THR234      0.2618
     65  O         26.6310   30.3000    8.9240 O.2   234  THR234     -0.2717
     66  CB        24.4660   32.1700   10.0710 C.3   234  THR234      0.1784
     67  OG1       23.3900   31.2790   10.3880 O.3   234  THR234     -0.2211
     68  CG2       24.0070   33.6080   10.2680 C.3   234  THR234      0.0376
     69  N         24.7680   29.6450    7.8490 N.am  235  SER235     -0.1951
     70  CA        25.2390   28.2780    7.6490 C.3   235  SER235      0.1924
     71  C         24.6400   27.6930    6.3710 C.2   235  SER235      0.2314
     72  O         23.4660   27.9110    6.0730 O.2   235  SER235     -0.2863
     73  CB        24.8510   27.4130    8.8500 C.3   235  SER235      0.2116
     74  OG        25.4120   26.1180    8.7540 O.3   235  SER235     -0.2180
     75  N         20.8750   27.8420    8.5910 N.3   249  TYR249     -0.1241
     76  CA        20.6790   28.8220    9.6470 C.3   249  TYR249      0.1605
     77  C         20.8080   30.2170    9.0630 C.2   249  TYR249      0.2264
     78  O         21.5210   30.4280    8.0800 O.2   249  TYR249     -0.2867
     79  CB        21.7150   28.6550   10.7560 C.3   249  TYR249      0.0534
     80  CG        21.6240   27.3560   11.5240 C.ar  249  TYR249     -0.0201
     81  CD1       22.0990   26.1650   10.9780 C.ar  249  TYR249     -0.0009
     82  CD2       21.0960   27.3280   12.8130 C.ar  249  TYR249     -0.0009
     83  CE1       22.0560   24.9760   11.7060 C.ar  249  TYR249      0.0417
     84  CE2       21.0460   26.1510   13.5460 C.ar  249  TYR249      0.0417
     85  CZ        21.5320   24.9800   12.9870 C.ar  249  TYR249      0.1957
     86  OH        21.5170   23.8270   13.7290 O.3   249  TYR249     -0.2866
     87  N         19.6680   33.6260   15.8510 N.3   257  GLU257     -0.1245
     88  CA        19.4910   32.9320   14.5940 C.3   257  GLU257      0.1567
     89  C         18.1920   32.1500   14.5290 C.2   257  GLU257      0.2260
     90  O         17.4820   32.0000   15.5220 O.2   257  GLU257     -0.2867
     91  CB        20.6790   31.9960   14.3460 C.3   257  GLU257      0.0388
     92  CG        21.9790   32.7350   14.0290 C.3   257  GLU257      0.1160
     93  CD        23.1650   31.8000   13.8470 C.2   257  GLU257      0.3649
     94  OE1       23.0790   30.8720   13.0180 O.co2 257  GLU257     -0.2457
     95  OE2       24.1900   31.9910   14.5320 O.co2 257  GLU257     -0.2457
     96  N         27.9830   17.9240   15.1540 N.3   279  PRO279     -0.2102
     97  CA        26.5470   18.2080   15.0670 C.3   279  PRO279      0.1504
     98  C         25.9760   18.0240   13.6630 C.2   279  PRO279      0.2576
     99  O         24.7560   18.0320   13.4820 O.2   279  PRO279     -0.2718
    100  CB        26.4670   19.6570   15.5250 C.3   279  PRO279      0.0282
    101  CG        27.6860   20.2390   14.8850 C.3   279  PRO279      0.0208
    102  CD        28.7610   19.1780   15.1530 C.3   279  PRO279      0.0893
    103  N         26.8510   17.8500   12.6750 N.am  280  SER280     -0.1953
    104  CA        26.4040   17.6990   11.2940 C.3   280  SER280      0.1924
    105  C         27.0400   16.5420   10.5250 C.2   280  SER280      0.2314
    106  O         28.2580   16.3550   10.5590 O.2   280  SER280     -0.2863
    107  CB        26.6550   19.0040   10.5300 C.3   280  SER280      0.2116
    108  OG        26.0480   20.1010   11.1930 O.3   280  SER280     -0.2180
    109  N         26.2640   22.4360    6.5970 N.3   284  HIS284     -0.1241
    110  CA        26.2450   23.3310    7.7490 C.3   284  HIS284      0.1621
    111  C         27.5930   24.0190    7.9090 C.2   284  HIS284      0.2264
    112  O         28.1160   24.1580    9.0150 O.2   284  HIS284     -0.2867
    113  CB        25.8760   22.5670    9.0220 C.3   284  HIS284      0.0745
    114  CG        24.4200   22.2340    9.1190 C.ar  284  HIS284      0.0817
    115  ND1       23.9480   21.1530    9.8340 N.ar  284  HIS284     -0.2268
    116  CD2       23.3280   22.8510    8.6060 C.ar  284  HIS284      0.1154
    117  CE1       22.6290   21.1180    9.7550 C.ar  284  HIS284      0.1986
    118  NE2       22.2280   22.1380    9.0180 N.ar  284  HIS284     -0.2212
    119  N         29.9400   27.0710    8.1460 N.3   286  SER286     -0.1217
    120  CA        29.7740   28.4350    8.6280 C.3   286  SER286      0.1889
    121  C         30.1670   29.4190    7.5380 C.2   286  SER286      0.2288
    122  O         31.2300   29.2890    6.9320 O.2   286  SER286     -0.2866
    123  CB        30.6420   28.6720    9.8620 C.3   286  SER286      0.2089
    124  OG        30.5890   30.0320   10.2480 O.3   286  SER286     -0.2183
@<TRIPOS>BOND
     1    72    71    2
     2    71    70    1
     3   109   110    1
     4   122   121    2
     5   121   120    1
     6    70    69    1
     7    70    73    1
     8    62    63    1
     9   110   111    1
    10   110   113    1
    11    69    64   am
    12   111   112    2
    13    78    77    2
    14   119   120    1
    15    64    63    1
    16    64    65    2
    17    75    76    1
    18   116   118   ar
    19   116   114   ar
    20    63    66    1
    21   120   123    1
    22    74    73    1
    23   118   117   ar
    24   113   114    1
    25    77    76    1
    26   114   115   ar
    27    76    79    1
    28   117   115   ar
    29   123   124    1
    30    66    68    1
    31    66    67    1
    32   105   106    2
    33   105   104    1
    34   107   108    1
    35   107   104    1
    36    79    80    1
    37    81    80   ar
    38    81    83   ar
    39   104   103    1
    40    80    82   ar
    41    83    85   ar
    42   103    98   am
    43    82    84   ar
    44    85    84   ar
    45    85    86    1
    46    94    93   ar
    47    99    98    2
    48    98    97    1
    49    93    92    1
    50    93    95   ar
    51    92    91    1
    52    91    88    1
    53    89    88    1
    54    89    90    2
    55    88    87    1
    56   101   102    1
    57   101   100    1
    58    97    96    1
    59    97   100    1
    60   102    96    1
    61    60    61   ar
    62    60    58   ar
    63    61    59   ar
    64    58    57   ar
    65    15    16    1
    66    15    14    1
    67    17    16    1
    68    55    54    2
    69    12    11    2
    70    13    14    1
    71    13    10    1
    72    59    57   ar
    73    57    56    1
    74    54    53    1
    75     7     8    1
    76     7     6    1
    77    11    10    1
    78    11    18   am
    79    10     9    1
    80     9     3   am
    81    56    53    1
    82    19    18    1
    83    19    20    1
    84    19    22    1
    85    53    52    1
    86    20    21    2
    87     2     3    1
    88     2     5    1
    89     2     1    1
    90    51    49    1
    91     6     5    1
    92     3     4    2
    93    23    22    1
    94    23    24    1
    95    50    49    1
    96    25    24    1
    97    36    35   ar
    98    36    34   ar
    99    35    33   ar
   100    49    48    1
   101    34    32   ar
   102    33    31   ar
   103    48    45    1
   104    32    31   ar
   105    31    30    1
   106    40    39    2
   107    42    43    1
   108    42    41    1
   109    30    27    1
   110    45    44    1
   111    45    46    1
   112    43    37    1
   113    39    44   am
   114    39    38    1
   115    41    38    1
   116    37    38    1
   117    37    28   am
   118    46    47    2
   119    27    28    1
   120    27    26    1
   121    28    29    2
