@<TRIPOS>MOLECULE
tmp/1lkdA00.pdb
 165 159 0 0 0
SMALL
GASTEIGER

@<TRIPOS>ATOM
      1  N         11.6900   23.9570   18.0120 N.3   145  HIS145     -0.1241
      2  CA        12.5880   23.9660   19.1630 C.3   145  HIS145      0.1621
      3  C         13.4200   25.2360   19.2300 C.2   145  HIS145      0.2264
      4  O         13.4160   26.0500   18.3060 O.2   145  HIS145     -0.2867
      5  CB        13.5410   22.7480   19.1420 C.3   145  HIS145      0.0745
      6  CG        14.6330   22.8210   18.1090 C.ar  145  HIS145      0.0817
      7  ND1       14.6750   21.9890   17.0090 N.ar  145  HIS145     -0.2268
      8  CD2       15.7480   23.5890   18.0390 C.ar  145  HIS145      0.1154
      9  CE1       15.7670   22.2410   16.3070 C.ar  145  HIS145      0.1986
     10  NE2       16.4350   23.2090   16.9110 N.ar  145  HIS145     -0.2212
     11  N         17.2680   26.7170   21.3380 N.3   147  VAL147     -0.1245
     12  CA        18.4270   26.3520   22.1270 C.3   147  VAL147      0.1561
     13  C         18.6810   27.3960   23.2000 C.2   147  VAL147      0.2260
     14  O         19.0240   28.5380   22.9020 O.2   147  VAL147     -0.2867
     15  CB        19.6590   26.2310   21.2250 C.3   147  VAL147      0.0252
     16  CG1       20.8590   25.7590   22.0350 C.3   147  VAL147      0.0019
     17  CG2       19.3550   25.2700   20.0900 C.3   147  VAL147      0.0019
     18  N         25.8270   16.2170   22.3140 N.3   172  ILE172     -0.1245
     19  CA        26.8310   16.4690   21.2920 C.3   172  ILE172      0.1561
     20  C         27.9050   17.3270   21.9420 C.2   172  ILE172      0.2260
     21  O         27.6190   18.4050   22.4610 O.2   172  ILE172     -0.2867
     22  CB        26.2610   17.2310   20.0710 C.3   172  ILE172      0.0252
     23  CG1       25.1920   16.3810   19.3750 C.3   172  ILE172      0.0019
     24  CG2       27.3840   17.5320   19.0770 C.3   172  ILE172      0.0019
     25  CD1       24.5070   17.0840   18.2120 C.3   172  ILE172      0.0001
     26  N         30.3060   19.7540   21.4440 N.3   174  MET174     -0.1245
     27  CA        30.6470   20.7720   20.4560 C.3   174  MET174      0.1570
     28  C         32.0680   21.2920   20.5780 C.2   174  MET174      0.2261
     29  O         32.4300   21.8700   21.5960 O.2   174  MET174     -0.2867
     30  CB        29.6880   21.9540   20.5950 C.3   174  MET174      0.0387
     31  CG        28.2180   21.5820   20.5620 C.3   174  MET174      0.0595
     32  SD        27.6160   21.3000   18.8990 S.3   174  MET174     -0.1393
     33  CE        25.9010   21.7500   19.0940 C.3   174  MET174      0.0692
     34  N         26.2770   19.9070   24.4380 N.3   184  ALA184     -0.1245
     35  CA        24.9690   20.4440   24.1110 C.3   184  ALA184      0.1562
     36  C         24.0110   19.2850   24.3810 C.2   184  ALA184      0.2260
     37  O         24.2310   18.1700   23.9030 O.2   184  ALA184     -0.2867
     38  CB        24.9120   20.8590   22.6430 C.3   184  ALA184      0.0290
     39  N         20.1820   17.6910   24.1140 N.3   186  PHE186     -0.1241
     40  CA        18.9540   17.7900   23.3330 C.3   186  PHE186      0.1605
     41  C         17.8670   17.0160   24.0610 C.2   186  PHE186      0.2264
     42  O         18.0260   15.8280   24.3400 O.2   186  PHE186     -0.2867
     43  CB        19.2030   17.2540   21.9240 C.3   186  PHE186      0.0534
     44  CG        20.2640   18.0160   21.1910 C.ar  186  PHE186     -0.0203
     45  CD1       21.6120   17.8300   21.5010 C.ar  186  PHE186     -0.0042
     46  CD2       19.9200   18.9850   20.2550 C.ar  186  PHE186     -0.0042
     47  CE1       22.5930   18.6020   20.8910 C.ar  186  PHE186     -0.0003
     48  CE2       20.9000   19.7640   19.6390 C.ar  186  PHE186     -0.0003
     49  CZ        22.2370   19.5710   19.9600 C.ar  186  PHE186     -0.0000
     50  N         13.9390   16.8510   19.5210 N.3   194  HIS194     -0.1241
     51  CA        14.1650   17.7630   20.6320 C.3   194  HIS194      0.1621
     52  C         13.3010   18.9970   20.4660 C.2   194  HIS194      0.2264
     53  O         13.0810   19.4800   19.3550 O.2   194  HIS194     -0.2867
     54  CB        15.6560   18.1410   20.8360 C.3   194  HIS194      0.0745
     55  CG        16.2850   18.8860   19.7000 C.ar  194  HIS194      0.0817
     56  ND1       16.6940   18.2690   18.5370 N.ar  194  HIS194     -0.2268
     57  CD2       16.6360   20.1900   19.5770 C.ar  194  HIS194      0.1154
     58  CE1       17.2730   19.1590   17.7490 C.ar  194  HIS194      0.1986
     59  NE2       17.2510   20.3310   18.3570 N.ar  194  HIS194     -0.2212
     60  N         17.1090   22.5020   23.5450 N.3   197  ALA197     -0.1245
     61  CA        18.5080   22.1080   23.6240 C.3   197  ALA197      0.1562
     62  C         19.1120   23.0570   24.6520 C.2   197  ALA197      0.2260
     63  O         18.6400   24.1820   24.8090 O.2   197  ALA197     -0.2867
     64  CB        19.1950   22.2630   22.2740 C.3   197  ALA197      0.0290
     65  N         27.0960   28.3380   25.7100 N.3   201  PHE201     -0.1241
     66  CA        27.7940   29.0320   24.6300 C.3   201  PHE201      0.1605
     67  C         28.1080   30.4660   25.0330 C.2   201  PHE201      0.2264
     68  O         27.4110   31.0520   25.8580 O.2   201  PHE201     -0.2867
     69  CB        26.9360   29.0760   23.3590 C.3   201  PHE201      0.0534
     70  CG        26.6380   27.7260   22.7630 C.ar  201  PHE201     -0.0203
     71  CD1       27.6110   26.7340   22.7160 C.ar  201  PHE201     -0.0042
     72  CD2       25.3890   27.4660   22.2030 C.ar  201  PHE201     -0.0042
     73  CE1       27.3510   25.5000   22.1170 C.ar  201  PHE201     -0.0003
     74  CE2       25.1160   26.2340   21.5980 C.ar  201  PHE201     -0.0003
     75  CZ        26.1030   25.2510   21.5560 C.ar  201  PHE201     -0.0000
     76  N         20.3020   30.6400   21.2300 N.3   208  HIS208     -0.1226
     77  CA        21.1870   30.7160   20.0780 C.3   208  HIS208      0.1752
     78  C         20.2930   30.8350   18.8480 C.2   208  HIS208      0.2596
     79  O         20.5330   31.6570   17.9670 O.2   208  HIS208     -0.2718
     80  CB        22.0590   29.4580   19.9990 C.3   208  HIS208      0.0759
     81  CG        22.8810   29.3670   18.7510 C.ar  208  HIS208      0.0818
     82  ND1       22.3900   28.8460   17.5730 N.ar  208  HIS208     -0.2268
     83  CD2       24.1500   29.7600   18.4890 C.ar  208  HIS208      0.1154
     84  CE1       23.3200   28.9220   16.6390 C.ar  208  HIS208      0.1986
     85  NE2       24.3980   29.4740   17.1680 N.ar  208  HIS208     -0.2212
     86  N         19.2510   30.0100   18.8000 N.am  209  HIS209     -0.1975
     87  CA        18.3090   30.0490   17.6900 C.3   209  HIS209      0.1656
     88  C         17.0210   29.3320   18.0390 C.2   209  HIS209      0.2291
     89  O         16.9480   28.6210   19.0410 O.2   209  HIS209     -0.2864
     90  CB        18.8900   29.3650   16.4410 C.3   209  HIS209      0.0771
     91  CG        19.0650   27.8780   16.5760 C.ar  209  HIS209      0.0820
     92  ND1       20.1910   27.3070   17.1300 N.ar  209  HIS209     -0.2267
     93  CD2       18.2690   26.8470   16.2000 C.ar  209  HIS209      0.1154
     94  CE1       20.0860   25.9900   17.0860 C.ar  209  HIS209      0.1986
     95  NE2       18.9280   25.6840   16.5260 N.ar  209  HIS209     -0.2212
     96  N         21.7740   17.2710   10.2850 N.3   240  HIS240     -0.1241
     97  CA        22.2890   17.0100   11.6210 C.3   240  HIS240      0.1621
     98  C         22.5200   15.5350   11.9060 C.2   240  HIS240      0.2264
     99  O         21.8280   14.6690   11.3850 O.2   240  HIS240     -0.2867
    100  CB        21.3370   17.5750   12.6690 C.3   240  HIS240      0.0745
    101  CG        21.3360   19.0660   12.7310 C.ar  240  HIS240      0.0817
    102  ND1       22.4660   19.7960   13.0320 N.ar  240  HIS240     -0.2268
    103  CD2       20.3440   19.9660   12.5360 C.ar  240  HIS240      0.1154
    104  CE1       22.1690   21.0830   13.0200 C.ar  240  HIS240      0.1986
    105  NE2       20.8880   21.2130   12.7240 N.ar  240  HIS240     -0.2212
    106  N         22.1850   14.0750   14.9220 N.3   242  ASN242     -0.1225
    107  CA        21.2370   13.5220   15.8790 C.3   242  ASN242      0.1785
    108  C         19.7810   13.4380   15.4500 C.2   242  ASN242      0.2597
    109  O         19.1860   12.3670   15.5350 O.2   242  ASN242     -0.2718
    110  CB        21.3740   14.2310   17.2450 C.3   242  ASN242      0.1169
    111  CG        21.1490   15.7360   17.1780 C.2   242  ASN242      0.2627
    112  OD1       21.0410   16.3260   16.1060 O.2   242  ASN242     -0.2716
    113  ND2       21.0940   16.3650   18.3460 N.am  242  ASN242     -0.0877
    114  N         19.1930   14.5350   14.9820 N.am  243  ASP243     -0.1974
    115  CA        17.8010   14.4590   14.5610 C.3   243  ASP243      0.1709
    116  C         17.6550   14.2690   13.0540 C.2   243  ASP243      0.2293
    117  O         16.5450   14.1160   12.5460 O.2   243  ASP243     -0.2864
    118  CB        17.0190   15.6920   15.0400 C.3   243  ASP243      0.1436
    119  CG        17.3460   16.9430   14.2600 C.2   243  ASP243      0.3671
    120  OD1       18.3600   16.9630   13.5330 O.co2 243  ASP243     -0.2456
    121  OD2       16.5740   17.9200   14.3870 O.co2 243  ASP243     -0.2456
    122  N         20.8750   27.8420    8.5910 N.3   249  TYR249     -0.1241
    123  CA        20.6790   28.8220    9.6470 C.3   249  TYR249      0.1605
    124  C         20.8080   30.2170    9.0630 C.2   249  TYR249      0.2264
    125  O         21.5210   30.4280    8.0800 O.2   249  TYR249     -0.2867
    126  CB        21.7150   28.6550   10.7560 C.3   249  TYR249      0.0534
    127  CG        21.6240   27.3560   11.5240 C.ar  249  TYR249     -0.0201
    128  CD1       22.0990   26.1650   10.9780 C.ar  249  TYR249     -0.0009
    129  CD2       21.0960   27.3280   12.8130 C.ar  249  TYR249     -0.0009
    130  CE1       22.0560   24.9760   11.7060 C.ar  249  TYR249      0.0417
    131  CE2       21.0460   26.1510   13.5460 C.ar  249  TYR249      0.0417
    132  CZ        21.5320   24.9800   12.9870 C.ar  249  TYR249      0.1957
    133  OH        21.5170   23.8270   13.7290 O.3   249  TYR249     -0.2866
    134  N         16.6900   28.5120   12.5770 N.3   259  GLU259     -0.1245
    135  CA        17.0360   27.3240   11.8150 C.3   259  GLU259      0.1567
    136  C         15.7580   26.9600   11.0690 C.2   259  GLU259      0.2260
    137  O         14.6710   26.9930   11.6440 O.2   259  GLU259     -0.2867
    138  CB        17.4580   26.1900   12.7440 C.3   259  GLU259      0.0388
    139  CG        17.7650   24.9060   11.9990 C.3   259  GLU259      0.1160
    140  CD        18.2650   23.8060   12.9030 C.2   259  GLU259      0.3649
    141  OE1       18.0430   23.8930   14.1270 O.co2 259  GLU259     -0.2457
    142  OE2       18.8670   22.8430   12.3830 O.co2 259  GLU259     -0.2457
    143  N         27.9830   17.9240   15.1540 N.3   279  PRO279     -0.2102
    144  CA        26.5470   18.2080   15.0670 C.3   279  PRO279      0.1504
    145  C         25.9760   18.0240   13.6630 C.2   279  PRO279      0.2576
    146  O         24.7560   18.0320   13.4820 O.2   279  PRO279     -0.2718
    147  CB        26.4670   19.6570   15.5250 C.3   279  PRO279      0.0282
    148  CG        27.6860   20.2390   14.8850 C.3   279  PRO279      0.0208
    149  CD        28.7610   19.1780   15.1530 C.3   279  PRO279      0.0893
    150  N         26.8510   17.8500   12.6750 N.am  280  SER280     -0.1953
    151  CA        26.4040   17.6990   11.2940 C.3   280  SER280      0.1924
    152  C         27.0400   16.5420   10.5250 C.2   280  SER280      0.2314
    153  O         28.2580   16.3550   10.5590 O.2   280  SER280     -0.2863
    154  CB        26.6550   19.0040   10.5300 C.3   280  SER280      0.2116
    155  OG        26.0480   20.1010   11.1930 O.3   280  SER280     -0.2180
    156  N         26.2640   22.4360    6.5970 N.3   284  HIS284     -0.1241
    157  CA        26.2450   23.3310    7.7490 C.3   284  HIS284      0.1621
    158  C         27.5930   24.0190    7.9090 C.2   284  HIS284      0.2264
    159  O         28.1160   24.1580    9.0150 O.2   284  HIS284     -0.2867
    160  CB        25.8760   22.5670    9.0220 C.3   284  HIS284      0.0745
    161  CG        24.4200   22.2340    9.1190 C.ar  284  HIS284      0.0817
    162  ND1       23.9480   21.1530    9.8340 N.ar  284  HIS284     -0.2268
    163  CD2       23.3280   22.8510    8.6060 C.ar  284  HIS284      0.1154
    164  CE1       22.6290   21.1180    9.7550 C.ar  284  HIS284      0.1986
    165  NE2       22.2280   22.1380    9.0180 N.ar  284  HIS284     -0.2212
@<TRIPOS>BOND
     1   156   157    1
     2   157   158    1
     3   157   160    1
     4   158   159    2
     5   125   124    2
     6   122   123    1
     7   163   165   ar
     8   163   161   ar
     9   165   164   ar
    10   160   161    1
    11   124   123    1
    12   161   162   ar
    13   123   126    1
    14   164   162   ar
    15    96    97    1
    16   152   153    2
    17   152   151    1
    18   154   155    1
    19   154   151    1
    20   126   127    1
    21   128   127   ar
    22   128   130   ar
    23   136   137    2
    24   136   135    1
    25   151   150    1
    26    99    98    2
    27   127   129   ar
    28    97    98    1
    29    97   100    1
    30   130   132   ar
    31   135   134    1
    32   135   138    1
    33   139   138    1
    34   139   140    1
    35   142   140   ar
    36   103   105   ar
    37   103   101   ar
    38   117   116    2
    39   100   101    1
    40   150   145   am
    41   105   104   ar
    42   101   102   ar
    43   129   131   ar
    44   140   141   ar
    45   132   131   ar
    46   132   133    1
    47   104   102   ar
    48   116   115    1
    49   146   145    2
    50   120   119   ar
    51   145   144    1
    52   119   121   ar
    53   119   118    1
    54   115   114    1
    55   115   118    1
    56   148   149    1
    57   148   147    1
    58   106   107    1
    59   114   108   am
    60   144   143    1
    61   144   147    1
    62   149   143    1
    63   108   109    2
    64   108   107    1
    65   107   110    1
    66   112   111    2
    67    93    95   ar
    68    93    91   ar
    69     9    10   ar
    70     9     7   ar
    71    90    91    1
    72    90    87    1
    73    95    94   ar
    74    91    92   ar
    75    84    85   ar
    76    84    82   ar
    77    10     8   ar
    78     7     6   ar
    79    94    92   ar
    80    85    83   ar
    81   111   110    1
    82   111   113   am
    83    82    81   ar
    84    87    88    1
    85    87    86    1
    86    58    59   ar
    87    58    56   ar
    88    79    78    2
    89     1     2    1
    90    88    89    2
    91     8     6   ar
    92     6     5    1
    93    25    23    1
    94     4     3    2
    95    59    57   ar
    96    83    81   ar
    97    56    55   ar
    98    81    80    1
    99    86    78   am
   100    78    77    1
   101    32    33    1
   102    32    31    1
   103    24    22    1
   104     5     2    1
   105     2     3    1
   106    53    52    2
   107    23    22    1
   108    50    51    1
   109    57    55   ar
   110    48    49   ar
   111    48    46   ar
   112    55    54    1
   113    49    47   ar
   114    80    77    1
   115    22    19    1
   116    77    76    1
   117    17    15    1
   118    46    44   ar
   119    27    28    1
   120    27    30    1
   121    27    26    1
   122    52    51    1
   123    31    30    1
   124    28    29    2
   125    51    54    1
   126    47    45   ar
   127    44    45   ar
   128    44    43    1
   129    15    16    1
   130    15    12    1
   131    19    20    1
   132    19    18    1
   133    11    12    1
   134    75    74   ar
   135    75    73   ar
   136    74    72   ar
   137    43    40    1
   138    20    21    2
   139    73    71   ar
   140    12    13    1
   141    72    70   ar
   142    64    61    1
   143    38    35    1
   144    71    70   ar
   145    70    69    1
   146    14    13    2
   147    40    41    1
   148    40    39    1
   149    69    66    1
   150    60    61    1
   151    61    62    1
   152    37    36    2
   153    41    42    2
   154    35    36    1
   155    35    34    1
   156    66    67    1
   157    66    65    1
   158    62    63    2
   159    67    68    2
