@<TRIPOS>MOLECULE
tmp/1lkdA01.pdb
 88 86 0 0 0
SMALL
GASTEIGER

@<TRIPOS>ATOM
      1  N         29.1620   31.0520   24.4480 N.3   202  PRO202     -0.2102
      2  CA        29.5240   32.4340   24.7790 C.3   202  PRO202      0.1504
      3  C         28.6990   33.4360   23.9700 C.2   202  PRO202      0.2576
      4  O         29.2390   34.1710   23.1440 O.2   202  PRO202     -0.2718
      5  CB        31.0070   32.4860   24.4320 C.3   202  PRO202      0.0282
      6  CG        31.0900   31.5840   23.2410 C.3   202  PRO202      0.0208
      7  CD        30.2250   30.4060   23.6530 C.3   202  PRO202      0.0893
      8  N         27.3890   33.4520   24.2100 N.am  203  LEU203     -0.1967
      9  CA        26.4740   34.3540   23.5090 C.3   203  LEU203      0.1713
     10  C         25.7390   35.2460   24.5080 C.2   203  LEU203      0.2458
     11  O         25.3850   34.8070   25.5980 O.2   203  LEU203     -0.2730
     12  CB        25.4530   33.5500   22.6980 C.3   203  LEU203      0.0310
     13  CG        25.9870   32.5800   21.6400 C.3   203  LEU203      0.0022
     14  CD1       24.8270   31.7860   21.0560 C.3   203  LEU203      0.0001
     15  CD2       26.7100   33.3440   20.5450 C.3   203  LEU203      0.0001
     16  N         25.4900   36.5120   24.1380 N.am  204  PRO204     -0.2716
     17  CA        24.8000   37.4790   24.9970 C.3   204  PRO204      0.1536
     18  C         23.2830   37.4440   24.8670 C.2   204  PRO204      0.2598
     19  O         22.6120   38.4440   25.1190 O.2   204  PRO204     -0.2715
     20  CB        25.3690   38.8030   24.5210 C.3   204  PRO204      0.0310
     21  CG        25.4090   38.5830   23.0370 C.3   204  PRO204      0.0237
     22  CD        25.9930   37.1730   22.9190 C.3   204  PRO204      0.0939
     23  N         22.7450   36.2990   24.4680 N.am  205  LYS205     -0.1978
     24  CA        21.3060   36.1640   24.3010 C.3   205  LYS205      0.1596
     25  C         20.7980   34.9430   25.0520 C.2   205  LYS205      0.2287
     26  O         21.5740   34.0640   25.4240 O.2   205  LYS205     -0.2864
     27  CB        20.9630   36.0410   22.8120 C.3   205  LYS205      0.0298
     28  CG        21.3490   37.2610   21.9820 C.3   205  LYS205      0.0038
     29  CD        20.4970   38.4720   22.3470 C.3   205  LYS205      0.0206
     30  CE        20.8900   39.6910   21.5310 C.3   205  LYS205      0.1093
     31  NZ        20.0360   40.8720   21.8160 N.3   205  LYS205     -0.1314
     32  N         18.8160   32.6580   23.8290 N.3   207  ILE207     -0.1231
     33  CA        18.8280   31.5030   22.9400 C.3   207  ILE207      0.1692
     34  C         19.7620   31.7290   21.7640 C.2   207  ILE207      0.2592
     35  O         20.0020   32.8650   21.3580 O.2   207  ILE207     -0.2718
     36  CB        17.4140   31.1900   22.3780 C.3   207  ILE207      0.0266
     37  CG1       16.9310   32.3380   21.4900 C.3   207  ILE207      0.0019
     38  CG2       16.4420   30.9520   23.5210 C.3   207  ILE207      0.0020
     39  CD1       15.6670   32.0080   20.7020 C.3   207  ILE207      0.0001
     40  N         20.3020   30.6400   21.2300 N.am  208  HIS208     -0.1976
     41  CA        21.1870   30.7160   20.0780 C.3   208  HIS208      0.1656
     42  C         20.2930   30.8350   18.8480 C.2   208  HIS208      0.2291
     43  O         20.5330   31.6570   17.9670 O.2   208  HIS208     -0.2864
     44  CB        22.0590   29.4580   19.9990 C.3   208  HIS208      0.0771
     45  CG        22.8810   29.3670   18.7510 C.ar  208  HIS208      0.0820
     46  ND1       22.3900   28.8460   17.5730 N.ar  208  HIS208     -0.2267
     47  CD2       24.1500   29.7600   18.4890 C.ar  208  HIS208      0.1154
     48  CE1       23.3200   28.9220   16.6390 C.ar  208  HIS208      0.1986
     49  NE2       24.3980   29.4740   17.1680 N.ar  208  HIS208     -0.2212
     50  N         23.8130   32.1320    7.6750 N.3   234  THR234     -0.1218
     51  CA        24.9150   31.9470    8.6130 C.3   234  THR234      0.1862
     52  C         25.5120   30.5500    8.4790 C.2   234  THR234      0.2287
     53  O         26.6310   30.3000    8.9240 O.2   234  THR234     -0.2866
     54  CB        24.4660   32.1700   10.0710 C.3   234  THR234      0.1770
     55  OG1       23.3900   31.2790   10.3880 O.3   234  THR234     -0.2211
     56  CG2       24.0070   33.6080   10.2680 C.3   234  THR234      0.0375
     57  N         20.3640   34.7580   10.1540 N.3   251  SER251     -0.1217
     58  CA        20.2590   35.7830   11.1860 C.3   251  SER251      0.1889
     59  C         18.9240   36.5160   11.1560 C.2   251  SER251      0.2288
     60  O         18.4720   36.9430   10.0950 O.2   251  SER251     -0.2866
     61  CB        21.3720   36.8250   11.0080 C.3   251  SER251      0.2089
     62  OG        22.6540   36.2440   11.1340 O.3   251  SER251     -0.2183
     63  N         17.3590   40.5640   15.0900 N.3   254  SER254     -0.1202
     64  CA        17.8590   40.7040   16.4570 C.3   254  SER254      0.2020
     65  C         19.2060   40.0210   16.6890 C.2   254  SER254      0.2619
     66  O         19.7380   40.0560   17.8020 O.2   254  SER254     -0.2717
     67  CB        16.8450   40.1370   17.4560 C.3   254  SER254      0.2103
     68  OG        15.6480   40.8930   17.4720 O.3   254  SER254     -0.2182
     69  N         19.7530   39.3970   15.6510 N.am  255  GLY255     -0.1942
     70  CA        21.0300   38.7200   15.7970 C.3   255  GLY255      0.2014
     71  C         20.8320   37.2510   16.1150 C.2   255  GLY255      0.2639
     72  O         21.5770   36.3980   15.6270 O.2   255  GLY255     -0.2714
     73  N         19.8390   36.9580   16.9520 N.am  256  VAL256     -0.1963
     74  CA        19.5210   35.5790   17.2940 C.3   256  VAL256      0.1727
     75  C         19.2880   34.8900   15.9550 C.2   256  VAL256      0.2616
     76  O         18.7770   35.5010   15.0170 O.2   256  VAL256     -0.2715
     77  CB        18.2330   35.4920   18.1460 C.3   256  VAL256      0.0290
     78  CG1       17.8060   34.0400   18.3090 C.3   256  VAL256      0.0023
     79  CG2       18.4790   36.1140   19.5140 C.3   256  VAL256      0.0023
     80  N         19.6680   33.6260   15.8510 N.am  257  GLU257     -0.1977
     81  CA        19.4910   32.9320   14.5940 C.3   257  GLU257      0.1602
     82  C         18.1920   32.1500   14.5290 C.2   257  GLU257      0.2287
     83  O         17.4820   32.0000   15.5220 O.2   257  GLU257     -0.2864
     84  CB        20.6790   31.9960   14.3460 C.3   257  GLU257      0.0415
     85  CG        21.9790   32.7350   14.0290 C.3   257  GLU257      0.1163
     86  CD        23.1650   31.8000   13.8470 C.2   257  GLU257      0.3649
     87  OE1       23.0790   30.8720   13.0180 O.co2 257  GLU257     -0.2457
     88  OE2       24.1900   31.9910   14.5320 O.co2 257  GLU257     -0.2457
@<TRIPOS>BOND
     1    50    51    1
     2    52    51    1
     3    52    53    2
     4    51    54    1
     5    54    56    1
     6    54    55    1
     7    60    59    2
     8    57    58    1
     9    61    62    1
    10    61    58    1
    11    59    58    1
    12    87    86   ar
    13    86    85    1
    14    86    88   ar
    15    85    84    1
    16    84    81    1
    17    82    81    1
    18    82    83    2
    19    81    80    1
    20    76    75    2
    21    63    64    1
    22    72    71    2
    23    69    70    1
    24    69    65   am
    25    70    71    1
    26    80    75   am
    27    75    74    1
    28    71    73   am
    29    64    65    1
    30    64    67    1
    31    48    49   ar
    32    48    46   ar
    33    65    66    2
    34    73    74    1
    35    49    47   ar
    36    74    77    1
    37    67    68    1
    38    46    45   ar
    39    43    42    2
    40    77    78    1
    41    77    79    1
    42    47    45   ar
    43    45    44    1
    44    42    41    1
    45    44    41    1
    46    41    40    1
    47    15    13    1
    48    39    37    1
    49    14    13    1
    50    40    34   am
    51    35    34    2
    52    37    36    1
    53    30    31    1
    54    30    29    1
    55    13    12    1
    56    34    33    1
    57    28    29    1
    58    28    27    1
    59    36    33    1
    60    36    38    1
    61    12     9    1
    62    27    24    1
    63    22    21    1
    64    22    16    1
    65    33    32    1
    66    21    20    1
    67     4     3    2
    68     6     7    1
    69     6     5    1
    70     9     8    1
    71     9    10    1
    72     7     1    1
    73     3     8   am
    74     3     2    1
    75    16    10   am
    76    16    17    1
    77    24    23    1
    78    24    25    1
    79     5     2    1
    80     1     2    1
    81    23    18   am
    82    10    11    2
    83    20    17    1
    84    18    17    1
    85    18    19    2
    86    25    26    2
