@<TRIPOS>MOLECULE
tmp/1lkkA00.pdb
 163 156 0 0 0
SMALL
GASTEIGER

@<TRIPOS>ATOM
      1  N         38.9380   -5.1850    1.2100 N.3    13  ARG13      -0.1245
      2  CA        37.5610   -5.6440    1.4730 C.3    13  ARG13       0.1563
      3  C         37.5370   -7.0860    1.9520 C.2    13  ARG13       0.2260
      4  O         36.8710   -7.4180    2.9540 O.2    13  ARG13      -0.2867
      5  CB        36.6660   -5.5240    0.2250 C.3    13  ARG13       0.0307
      6  CG        35.3990   -6.3780    0.3470 C.3    13  ARG13       0.0489
      7  CD        34.5200   -6.3480   -0.8730 C.3    13  ARG13       0.2205
      8  NE        33.7470   -5.1300   -1.0070 N.pl3  13  ARG13      -0.0865
      9  CZ        32.4490   -4.9960   -1.1770 C.cat  13  ARG13       0.5346
     10  NH1       31.6380   -6.0430   -1.2970 N.pl3  13  ARG13       0.1354
     11  NH2       31.9140   -3.7760   -1.2150 N.pl3  13  ARG13       0.1354
     12  N         38.2400    1.5220    6.2700 N.3    33  ARG33      -0.1245
     13  CA        39.4240    1.2640    5.4730 C.3    33  ARG33       0.1563
     14  C         39.4150    2.1620    4.2450 C.2    33  ARG33       0.2260
     15  O         38.3380    2.6790    3.8540 O.2    33  ARG33      -0.2867
     16  CB        39.4470   -0.2260    5.0560 C.3    33  ARG33       0.0307
     17  CG        38.1750   -0.6640    4.3270 C.3    33  ARG33       0.0489
     18  CD        38.0860   -2.1760    4.1240 C.3    33  ARG33       0.2205
     19  NE        36.7620   -2.5730    3.5920 N.pl3  33  ARG33      -0.0865
     20  CZ        36.3810   -2.3740    2.3390 C.cat  33  ARG33       0.5346
     21  NH1       37.2350   -1.9460    1.4060 N.pl3  33  ARG33       0.1354
     22  NH2       35.1030   -2.5690    2.0070 N.pl3  33  ARG33       0.1354
     23  N         38.8560    2.9090    0.5030 N.3    35  SER35      -0.1202
     24  CA        38.0090    2.2390   -0.4840 C.3    35  SER35       0.2020
     25  C         38.8750    1.6080   -1.5880 C.2    35  SER35       0.2619
     26  O         39.7780    2.2470   -2.1200 O.2    35  SER35      -0.2717
     27  CB        37.0950    3.2910   -1.1210 C.3    35  SER35       0.2103
     28  OG        36.3010    2.6930   -2.1530 O.3    35  SER35      -0.2182
     29  N         38.4940    0.3970   -1.9930 N.am   36  GLU36      -0.1965
     30  CA        39.0660   -0.2340   -3.1770 C.3    36  GLU36       0.1733
     31  C         38.3100    0.1430   -4.4420 C.2    36  GLU36       0.2617
     32  O         38.7700   -0.1670   -5.5500 O.2    36  GLU36      -0.2715
     33  CB        39.1050   -1.7660   -3.0060 C.3    36  GLU36       0.0429
     34  CG        40.1730   -2.2440   -2.0490 C.3    36  GLU36       0.1163
     35  CD        40.3030   -3.7280   -1.9010 C.2    36  GLU36       0.3649
     36  OE1       39.3280   -4.4500   -1.6490 O.co2  36  GLU36      -0.2457
     37  OE2       41.4680   -4.2220   -2.0070 O.co2  36  GLU36      -0.2457
     38  N         37.1810    0.8290   -4.3090 N.am   37  SER37      -0.1950
     39  CA        36.3580    1.1820   -5.4610 C.3    37  SER37       0.1924
     40  C         36.4650    2.6500   -5.8600 C.2    37  SER37       0.2314
     41  O         36.3470    2.9590   -7.0650 O.2    37  SER37      -0.2863
     42  CB        34.8850    0.8240   -5.1760 C.3    37  SER37       0.2116
     43  OG        34.6840   -0.5700   -5.1330 O.3    37  SER37      -0.2180
     44  N         35.6850    3.1940    2.9750 N.3    43  SER43      -0.1217
     45  CA        34.5940    2.2350    3.0880 C.3    43  SER43       0.1889
     46  C         34.4180    1.8180    4.5570 C.2    43  SER43       0.2288
     47  O         35.4030    1.6440    5.2700 O.2    43  SER43      -0.2866
     48  CB        34.8830    0.9860    2.2520 C.3    43  SER43       0.2089
     49  OG        34.9140    1.3410    0.8620 O.3    43  SER43      -0.2183
     50  N         28.6050   -6.4970    5.8190 N.3    58  LYS58      -0.1231
     51  CA        28.0580   -5.5190    4.9110 C.3    58  LYS58       0.1693
     52  C         29.0150   -4.3400    4.7880 C.2    58  LYS58       0.2592
     53  O         29.6830   -3.9840    5.7640 O.2    58  LYS58      -0.2718
     54  CB        26.6720   -5.0750    5.3880 C.3    58  LYS58       0.0285
     55  CG        25.6280   -6.1590    5.1960 C.3    58  LYS58       0.0035
     56  CD        24.3530   -5.9410    5.9120 C.3    58  LYS58       0.0206
     57  CE        23.3630   -7.0780    5.7000 C.3    58  LYS58       0.1093
     58  NZ        22.2740   -7.0170    6.6960 N.3    58  LYS58      -0.1314
     59  N         29.0730   -3.7650    3.5930 N.am   59  HIS59      -0.1962
     60  CA        29.9770   -2.6430    3.3330 C.3    59  HIS59       0.1787
     61  C         29.1620   -1.4330    2.8580 C.2    59  HIS59       0.2620
     62  O         28.2580   -1.5910    2.0210 O.2    59  HIS59      -0.2715
     63  CB        31.0080   -3.0160    2.2630 C.3    59  HIS59       0.0785
     64  CG        31.7610   -4.2860    2.5430 C.ar   59  HIS59       0.0821
     65  ND1       32.8950   -4.3310    3.3260 N.ar   59  HIS59      -0.2267
     66  CD2       31.4760   -5.5490    2.1230 C.ar   59  HIS59       0.1154
     67  CE1       33.2970   -5.6010    3.3250 C.ar   59  HIS59       0.1986
     68  NE2       32.4590   -6.3650    2.6300 N.ar   59  HIS59      -0.2212
     69  N         29.5410   -0.2520    3.3250 N.am   60  TYR60      -0.1960
     70  CA        28.9340    1.0140    2.9330 C.3    60  TYR60       0.1771
     71  C         29.9950    1.9490    2.3700 C.2    60  TYR60       0.2619
     72  O         31.0880    2.0610    2.9360 O.2    60  TYR60      -0.2715
     73  CB        28.2340    1.7080    4.1160 C.3    60  TYR60       0.0574
     74  CG        27.0450    0.9530    4.6660 C.ar   60  TYR60      -0.0198
     75  CD1       27.1900   -0.0640    5.5870 C.ar   60  TYR60      -0.0009
     76  CD2       25.7450    1.2740    4.2680 C.ar   60  TYR60      -0.0009
     77  CE1       26.0880   -0.7500    6.0800 C.ar   60  TYR60       0.0417
     78  CE2       24.6490    0.5890    4.7540 C.ar   60  TYR60       0.0417
     79  CZ        24.8120   -0.4240    5.6620 C.ar   60  TYR60       0.1957
     80  OH        23.7260   -1.1020    6.1640 O.3    60  TYR60      -0.2866
     81  N         29.6730    2.6540    1.2960 N.am   61  LYS61      -0.1977
     82  CA        30.5520    3.7100    0.8050 C.3    61  LYS61       0.1596
     83  C         30.4470    4.9370    1.7110 C.2    61  LYS61       0.2287
     84  O         29.3330    5.4200    1.9760 O.2    61  LYS61      -0.2864
     85  CB        30.2340    4.1210   -0.6320 C.3    61  LYS61       0.0298
     86  CG        30.2140    2.9700   -1.6260 C.3    61  LYS61       0.0038
     87  CD        30.0430    3.4230   -3.0630 C.3    61  LYS61       0.0206
     88  CE        31.3230    4.0840   -3.5950 C.3    61  LYS61       0.1093
     89  NZ        32.4060    3.0870   -3.8010 N.3    61  LYS61      -0.1314
     90  N         31.0720    8.7120    1.3980 N.3    63  ARG63      -0.1245
     91  CA        31.2770    9.7360    0.3610 C.3    63  ARG63       0.1563
     92  C         32.0150   10.9440    0.9800 C.2    63  ARG63       0.2260
     93  O         31.7150   11.3550    2.1180 O.2    63  ARG63      -0.2867
     94  CB        29.9380   10.1830   -0.2100 C.3    63  ARG63       0.0307
     95  CG        29.1780    9.1890   -1.0520 C.3    63  ARG63       0.0489
     96  CD        28.4350    8.1420   -0.2590 C.3    63  ARG63       0.2205
     97  NE        27.3000    7.5850   -0.8830 N.pl3  63  ARG63      -0.0865
     98  CZ        26.7330    7.6290   -2.0410 C.cat  63  ARG63       0.5346
     99  NH1       27.1510    8.4430   -3.0070 N.pl3  63  ARG63       0.1354
    100  NH2       25.6840    6.8340   -2.2950 N.pl3  63  ARG63       0.1354
    101  N         27.1980    8.8940    4.4980 N.3    72  ILE72      -0.1231
    102  CA        26.7380    7.6480    3.9070 C.3    72  ILE72       0.1692
    103  C         25.4200    7.8330    3.1590 C.2    72  ILE72       0.2592
    104  O         25.2450    7.3300    2.0550 O.2    72  ILE72      -0.2718
    105  CB        26.6430    6.5150    4.9570 C.3    72  ILE72       0.0266
    106  CG1       28.0740    6.2120    5.5150 C.3    72  ILE72       0.0019
    107  CG2       26.0770    5.2570    4.3020 C.3    72  ILE72       0.0020
    108  CD1       28.1060    5.2860    6.6830 C.3    72  ILE72       0.0001
    109  N         24.5260    8.6010    3.7680 N.am   73  SER73      -0.1952
    110  CA        23.3490    9.1260    3.1180 C.3    73  SER73       0.1924
    111  C         23.3750   10.6580    3.0620 C.2    73  SER73       0.2314
    112  O         23.7930   11.2900    4.0310 O.2    73  SER73      -0.2863
    113  CB        22.0650    8.6970    3.8230 C.3    73  SER73       0.2116
    114  OG        20.9850    9.5120    3.3570 O.3    73  SER73      -0.2180
    115  N         21.1920   12.6170    3.5110 N.3    75  ARG75      -0.1245
    116  CA        20.3090   13.1460    4.5340 C.3    75  ARG75       0.1563
    117  C         21.0530   13.7080    5.7170 C.2    75  ARG75       0.2260
    118  O         20.5210   14.5480    6.4470 O.2    75  ARG75      -0.2867
    119  CB        19.2450   12.1260    4.9400 C.3    75  ARG75       0.0307
    120  CG        19.7140   11.0690    5.9180 C.3    75  ARG75       0.0489
    121  CD        18.7800    9.8920    6.0520 C.3    75  ARG75       0.2205
    122  NE        18.7220    9.0550    4.8710 N.pl3  75  ARG75      -0.0865
    123  CZ        17.9260    8.0270    4.6670 C.cat  75  ARG75       0.5346
    124  NH1       17.1040    7.5990    5.6140 N.pl3  75  ARG75       0.1354
    125  NH2       17.9130    7.4120    3.4760 N.pl3  75  ARG75       0.1354
    126  N         26.6800    6.8690   14.2730 N.3    88  TYR88      -0.1241
    127  CA        26.1930    5.5280   13.9500 C.3    88  TYR88       0.1605
    128  C         26.4860    4.5030   15.0400 C.2    88  TYR88       0.2264
    129  O         25.9640    3.3790   14.9840 O.2    88  TYR88      -0.2867
    130  CB        26.6920    5.0860   12.5670 C.3    88  TYR88       0.0534
    131  CG        26.0830    5.8630   11.4150 C.ar   88  TYR88      -0.0201
    132  CD1       24.7400    5.6770   11.0800 C.ar   88  TYR88      -0.0009
    133  CD2       26.7970    6.7940   10.6780 C.ar   88  TYR88      -0.0009
    134  CE1       24.1570    6.4130   10.0480 C.ar   88  TYR88       0.0417
    135  CE2       26.2500    7.5100    9.6310 C.ar   88  TYR88       0.0417
    136  CZ        24.8990    7.3290    9.3340 C.ar   88  TYR88       0.1957
    137  OH        24.3560    8.0750    8.3250 O.3    88  TYR88      -0.2866
    138  N         20.2000    4.5960   12.4460 N.3    93  ASP93      -0.1225
    139  CA        19.8510    5.6770   11.5240 C.3    93  ASP93       0.1805
    140  C         19.9550    5.2650   10.0760 C.2    93  ASP93       0.2598
    141  O         20.4580    6.0080    9.2220 O.2    93  ASP93      -0.2718
    142  CB        20.5720    6.9690   11.8430 C.3    93  ASP93       0.1424
    143  CG        20.0210    8.1980   11.1800 C.2    93  ASP93       0.3668
    144  OD1       18.8250    8.2270   10.7960 O.co2  93  ASP93      -0.2456
    145  OD2       20.8030    9.1660   10.9820 O.co2  93  ASP93      -0.2456
    146  N         19.4120    4.0910    9.7470 N.am   94  GLY94      -0.1942
    147  CA        19.3960    3.5630    8.4070 C.3    94  GLY94       0.2014
    148  C         20.3760    2.4440    8.1400 C.2    94  GLY94       0.2639
    149  O         20.1770    1.6590    7.1920 O.2    94  GLY94      -0.2714
    150  N         21.4730    2.3600    8.9060 N.am   95  LEU95      -0.1963
    151  CA        22.3910    1.2280    8.7410 C.3    95  LEU95       0.1728
    152  C         21.7090   -0.0830    9.1620 C.2    95  LEU95       0.2616
    153  O         20.7490   -0.0880    9.9260 O.2    95  LEU95      -0.2715
    154  CB        23.6640    1.4020    9.5690 C.3    95  LEU95       0.0311
    155  CG        24.5840    2.5480    9.2730 C.3    95  LEU95       0.0022
    156  CD1       25.8330    2.4860   10.1540 C.3    95  LEU95       0.0001
    157  CD2       25.0060    2.6150    7.7950 C.3    95  LEU95       0.0001
    158  N         22.3120   -1.1890    8.7630 N.am   96  CYS96      -0.1968
    159  CA        21.8280   -2.5120    9.1350 C.3    96  CYS96       0.1712
    160  C         21.8610   -2.7820   10.6340 C.2    96  CYS96       0.2296
    161  O         21.0860   -3.6240   11.1180 O.2    96  CYS96      -0.2864
    162  CB        22.5960   -3.5950    8.3870 C.3    96  CYS96       0.0983
    163  SG        24.3860   -3.5460    8.6070 S.3    96  CYS96      -0.0798
@<TRIPOS>BOND
     1    41    40    2
     2    40    39    1
     3    32    31    2
     4    39    42    1
     5    39    38    1
     6    42    43    1
     7    31    38   am
     8    31    30    1
     9    89    88    1
    10    88    87    1
    11    30    33    1
    12    30    29    1
    13    87    86    1
    14    99    98    1
    15    33    34    1
    16   100    98    1
    17    28    27    1
    18    26    25    2
    19    34    35    1
    20    98    97    2
    21    37    35   ar
    22    29    25   am
    23    35    36   ar
    24    86    85    1
    25    25    24    1
    26    10     9    1
    27    11     9    1
    28     9     8    2
    29    27    24    1
    30    95    96    1
    31    95    94    1
    32     8     7    1
    33    97    96    1
    34     7     6    1
    35    85    82    1
    36    24    23    1
    37    94    91    1
    38     5     6    1
    39     5     2    1
    40    91    92    1
    41    91    90    1
    42    82    81    1
    43    82    83    1
    44    49    48    1
    45    92    93    2
    46     1     2    1
    47    81    71   am
    48    21    20    1
    49     2     3    1
    50    83    84    2
    51     3     4    2
    52    22    20    1
    53    62    61    2
    54   104   103    2
    55    66    64   ar
    56    66    68   ar
    57    48    45    1
    58    63    64    1
    59    63    60    1
    60    20    19    2
    61    71    70    1
    62    71    72    2
    63    64    65   ar
    64    68    67   ar
    65    61    69   am
    66    61    60    1
    67    70    69    1
    68    70    73    1
    69    44    45    1
    70   111   110    1
    71   111   112    2
    72    45    46    1
    73   110   109    1
    74   110   113    1
    75   103   109   am
    76   103   102    1
    77    67    65   ar
    78    60    59    1
    79   114   113    1
    80   125   123    1
    81   115   116    1
    82    19    18    1
    83    59    52   am
    84    15    14    2
    85   102   101    1
    86   102   105    1
    87    73    74    1
    88    18    17    1
    89    14    13    1
    90    76    74   ar
    91    76    78   ar
    92   107   105    1
    93    17    16    1
    94   116   119    1
    95   116   117    1
    96    46    47    2
    97    74    75   ar
    98   123   122    2
    99   123   124    1
   100    78    79   ar
   101    52    51    1
   102    52    53    2
   103   122   121    1
   104    51    54    1
   105    51    50    1
   106   119   120    1
   107   105   106    1
   108    16    13    1
   109    55    54    1
   110    55    56    1
   111    13    12    1
   112   106   108    1
   113    75    77   ar
   114    79    77   ar
   115    79    80    1
   116    57    56    1
   117    57    58    1
   118   117   118    2
   119   120   121    1
   120   149   148    2
   121   157   155    1
   122   148   147    1
   123   148   150   am
   124   137   136    1
   125   162   163    1
   126   162   159    1
   127   147   146    1
   128   151   150    1
   129   151   152    1
   130   151   154    1
   131   158   159    1
   132   158   152   am
   133   159   160    1
   134   152   153    2
   135   141   140    2
   136   155   154    1
   137   155   156    1
   138   136   135   ar
   139   136   134   ar
   140   135   133   ar
   141   146   140   am
   142   134   132   ar
   143   140   139    1
   144   160   161    2
   145   133   131   ar
   146   144   143   ar
   147   145   143   ar
   148   132   131   ar
   149   143   142    1
   150   131   130    1
   151   139   142    1
   152   139   138    1
   153   130   127    1
   154   127   126    1
   155   127   128    1
   156   129   128    2
