@<TRIPOS>MOLECULE
tmp/1lklA00.pdb
 157 150 0 0 0
SMALL
GASTEIGER

@<TRIPOS>ATOM
      1  N         38.9150   -5.3270    1.2210 N.3    12  ARG12      -0.1245
      2  CA        37.5360   -5.6910    1.5500 C.3    12  ARG12       0.1563
      3  C         37.4850   -7.1530    2.0130 C.2    12  ARG12       0.2260
      4  O         36.8280   -7.4600    3.0160 O.2    12  ARG12      -0.2867
      5  CB        36.6100   -5.5170    0.3310 C.3    12  ARG12       0.0307
      6  CG        35.3240   -6.3570    0.4160 C.3    12  ARG12       0.0489
      7  CD        34.4540   -6.3400   -0.8590 C.3    12  ARG12       0.2205
      8  NE        33.6980   -5.0980   -0.9540 N.pl3  12  ARG12      -0.0865
      9  CZ        32.3940   -4.9970   -1.1950 C.cat  12  ARG12       0.5346
     10  NH1       31.6240   -6.0810   -1.3810 N.pl3  12  ARG12       0.1354
     11  NH2       31.8650   -3.7900   -1.2470 N.pl3  12  ARG12       0.1354
     12  N         38.2740    1.4180    6.2170 N.3    32  ARG32      -0.1245
     13  CA        39.4890    1.1970    5.4290 C.3    32  ARG32       0.1563
     14  C         39.4400    2.0430    4.1650 C.2    32  ARG32       0.2260
     15  O         38.4010    2.6100    3.8230 O.2    32  ARG32      -0.2867
     16  CB        39.5500   -0.2800    5.0070 C.3    32  ARG32       0.0307
     17  CG        38.2710   -0.7420    4.2740 C.3    32  ARG32       0.0489
     18  CD        38.1760   -2.2720    4.1090 C.3    32  ARG32       0.2205
     19  NE        36.8480   -2.6530    3.6260 N.pl3  32  ARG32      -0.0865
     20  CZ        36.4500   -2.5250    2.3660 C.cat  32  ARG32       0.5346
     21  NH1       37.2870   -2.0600    1.4470 N.pl3  32  ARG32       0.1354
     22  NH2       35.1780   -2.7350    2.0470 N.pl3  32  ARG32       0.1354
     23  N         38.4790    0.2590   -2.0720 N.3    35  GLU35      -0.1231
     24  CA        39.1310   -0.3990   -3.1950 C.3    35  GLU35       0.1699
     25  C         38.3750   -0.0420   -4.4800 C.2    35  GLU35       0.2592
     26  O         38.7910   -0.3860   -5.5870 O.2    35  GLU35      -0.2718
     27  CB        39.1380   -1.9130   -3.0150 C.3    35  GLU35       0.0402
     28  CG        40.1050   -2.4060   -1.9460 C.3    35  GLU35       0.1161
     29  CD        40.2060   -3.9220   -1.8910 C.2    35  GLU35       0.3649
     30  OE1       39.1760   -4.6090   -1.7440 O.co2  35  GLU35      -0.2457
     31  OE2       41.3250   -4.4390   -2.0000 O.co2  35  GLU35      -0.2457
     32  N         37.2730    0.6850   -4.3290 N.am   36  SER36      -0.1952
     33  CA        36.4340    1.0750   -5.4670 C.3    36  SER36       0.1924
     34  C         36.5450    2.5220   -5.8870 C.2    36  SER36       0.2314
     35  O         36.4480    2.8260   -7.0750 O.2    36  SER36      -0.2863
     36  CB        34.9570    0.7640   -5.1750 C.3    36  SER36       0.2116
     37  OG        34.7230   -0.6280   -5.1300 O.3    36  SER36      -0.2180
     38  N         35.7940    3.0810    3.0050 N.3    42  SER42      -0.1217
     39  CA        34.6860    2.1420    3.0680 C.3    42  SER42       0.1889
     40  C         34.5120    1.6870    4.5070 C.2    42  SER42       0.2288
     41  O         35.4960    1.5480    5.2520 O.2    42  SER42      -0.2866
     42  CB        34.9320    0.9050    2.1970 C.3    42  SER42       0.2089
     43  OG        35.0540    1.2510    0.8400 O.3    42  SER42      -0.2183
     44  N         28.5860   -6.4780    5.8400 N.3    57  LYS57      -0.1231
     45  CA        28.0610   -5.5340    4.8550 C.3    57  LYS57       0.1693
     46  C         29.0280   -4.3600    4.7360 C.2    57  LYS57       0.2592
     47  O         29.6960   -3.9930    5.7100 O.2    57  LYS57      -0.2718
     48  CB        26.6570   -5.0540    5.2590 C.3    57  LYS57       0.0285
     49  CG        25.5900   -6.1410    5.0490 C.3    57  LYS57       0.0035
     50  CD        24.2770   -5.7990    5.6720 C.3    57  LYS57       0.0206
     51  CE        23.2820   -6.9230    5.4180 C.3    57  LYS57       0.1093
     52  NZ        22.0940   -6.8230    6.3110 N.3    57  LYS57      -0.1314
     53  N         29.1350   -3.8090    3.5280 N.am   58  HIS58      -0.1962
     54  CA        30.0400   -2.7050    3.2510 C.3    58  HIS58       0.1787
     55  C         29.2380   -1.4900    2.8110 C.2    58  HIS58       0.2620
     56  O         28.2710   -1.6200    2.0620 O.2    58  HIS58      -0.2715
     57  CB        31.0390   -3.0940    2.1370 C.3    58  HIS58       0.0785
     58  CG        31.7700   -4.3830    2.3870 C.ar   58  HIS58       0.0821
     59  ND1       32.8610   -4.4770    3.2240 N.ar   58  HIS58      -0.2267
     60  CD2       31.5300   -5.6440    1.9420 C.ar   58  HIS58       0.1154
     61  CE1       33.2570   -5.7370    3.2910 C.ar   58  HIS58       0.1986
     62  NE2       32.4660   -6.4660    2.5250 N.ar   58  HIS58      -0.2212
     63  N         29.6560   -0.3120    3.2610 N.am   59  TYR59      -0.1960
     64  CA        29.0120    0.9550    2.9060 C.3    59  TYR59       0.1771
     65  C         30.0840    1.8840    2.3730 C.2    59  TYR59       0.2619
     66  O         31.1930    1.9300    2.9190 O.2    59  TYR59      -0.2715
     67  CB        28.3860    1.6210    4.1460 C.3    59  TYR59       0.0574
     68  CG        27.2440    0.8260    4.7240 C.ar   59  TYR59      -0.0198
     69  CD1       27.4610   -0.1760    5.6750 C.ar   59  TYR59      -0.0009
     70  CD2       25.9400    1.0360    4.2710 C.ar   59  TYR59      -0.0009
     71  CE1       26.4100   -0.9540    6.1380 C.ar   59  TYR59       0.0417
     72  CE2       24.8780    0.2570    4.7400 C.ar   59  TYR59       0.0417
     73  CZ        25.1260   -0.7250    5.6640 C.ar   59  TYR59       0.1957
     74  OH        24.1030   -1.5040    6.1170 O.3    59  TYR59      -0.2866
     75  N         29.7770    2.5950    1.2960 N.am   60  LYS60      -0.1977
     76  CA        30.7280    3.5540    0.7440 C.3    60  LYS60       0.1596
     77  C         30.6230    4.8190    1.5820 C.2    60  LYS60       0.2287
     78  O         29.5190    5.2590    1.9120 O.2    60  LYS60      -0.2864
     79  CB        30.3860    3.9360   -0.7030 C.3    60  LYS60       0.0298
     80  CG        30.2990    2.8000   -1.6750 C.3    60  LYS60       0.0038
     81  CD        30.0050    3.3040   -3.0700 C.3    60  LYS60       0.0206
     82  CE        31.1920    4.0290   -3.6820 C.3    60  LYS60       0.1093
     83  NZ        32.3290    3.1040   -3.8520 N.3    60  LYS60      -0.1314
     84  N         31.2250    8.5390    1.3100 N.3    62  ARG62      -0.1245
     85  CA        31.4930    9.5320    0.2820 C.3    62  ARG62       0.1563
     86  C         32.1220   10.7990    0.8640 C.2    62  ARG62       0.2260
     87  O         31.7830   11.2130    1.9690 O.2    62  ARG62      -0.2867
     88  CB        30.2010    9.8690   -0.4980 C.3    62  ARG62       0.0307
     89  CG        29.4430    8.6550   -1.0880 C.3    62  ARG62       0.0489
     90  CD        28.5470    7.9740   -0.0160 C.3    62  ARG62       0.2205
     91  NE        27.7540    6.8450   -0.5070 N.pl3  62  ARG62      -0.0865
     92  CZ        26.6630    6.9670   -1.2600 C.cat  62  ARG62       0.5346
     93  NH1       26.2180    8.1740   -1.6110 N.pl3  62  ARG62       0.1354
     94  NH2       26.0020    5.8820   -1.6500 N.pl3  62  ARG62       0.1354
     95  N         27.3530    8.6410    4.2860 N.3    71  ILE71      -0.1231
     96  CA        27.0410    7.3370    3.7330 C.3    71  ILE71       0.1692
     97  C         25.7280    7.5520    2.9720 C.2    71  ILE71       0.2592
     98  O         25.5140    7.0280    1.8760 O.2    71  ILE71      -0.2718
     99  CB        26.8740    6.2960    4.8710 C.3    71  ILE71       0.0266
    100  CG1       28.2550    5.9950    5.4670 C.3    71  ILE71       0.0019
    101  CG2       26.1670    5.0120    4.3590 C.3    71  ILE71       0.0020
    102  CD1       28.2810    4.9550    6.5430 C.3    71  ILE71       0.0001
    103  N         24.8780    8.3870    3.5560 N.am   72  SER72      -0.1952
    104  CA        23.5900    8.7420    2.9940 C.3    72  SER72       0.1924
    105  C         23.6030   10.2800    2.8320 C.2    72  SER72       0.2314
    106  O         23.8530   11.0060    3.8070 O.2    72  SER72      -0.2863
    107  CB        22.5020    8.2650    3.9630 C.3    72  SER72       0.2116
    108  OG        21.2080    8.6020    3.5110 O.3    72  SER72      -0.2180
    109  N         21.4920   12.5360    2.8870 N.3    74  ARG74      -0.1245
    110  CA        20.6310   13.2400    3.8260 C.3    74  ARG74       0.1563
    111  C         21.2620   13.6300    5.1540 C.2    74  ARG74       0.2260
    112  O         20.6780   14.4150    5.9060 O.2    74  ARG74      -0.2867
    113  CB        19.3680   12.4250    4.0880 C.3    74  ARG74       0.0307
    114  CG        19.6460   11.1070    4.7360 C.3    74  ARG74       0.0489
    115  CD        18.4110   10.2680    4.8400 C.3    74  ARG74       0.2205
    116  NE        18.7210    8.9270    5.3090 N.pl3  74  ARG74      -0.0865
    117  CZ        18.9750    8.6140    6.5750 C.cat  74  ARG74       0.5346
    118  NH1       18.9530    9.5550    7.5100 N.pl3  74  ARG74       0.1354
    119  NH2       19.2570    7.3570    6.8980 N.pl3  74  ARG74       0.1354
    120  N         26.7140    6.7870   14.1010 N.3    87  TYR87      -0.1241
    121  CA        26.2460    5.4420   13.8220 C.3    87  TYR87       0.1605
    122  C         26.4390    4.4920   14.9950 C.2    87  TYR87       0.2264
    123  O         25.9210    3.3750   14.9960 O.2    87  TYR87      -0.2867
    124  CB        26.8380    4.9180   12.5100 C.3    87  TYR87       0.0534
    125  CG        26.2770    5.6350   11.3070 C.ar   87  TYR87      -0.0201
    126  CD1       24.9540    5.4200   10.9020 C.ar   87  TYR87      -0.0009
    127  CD2       27.0480    6.5530   10.5890 C.ar   87  TYR87      -0.0009
    128  CE1       24.4100    6.0980    9.8080 C.ar   87  TYR87       0.0417
    129  CE2       26.5220    7.2350    9.4960 C.ar   87  TYR87       0.0417
    130  CZ        25.1980    7.0050    9.1120 C.ar   87  TYR87       0.1957
    131  OH        24.6880    7.6920    8.0290 O.3    87  TYR87      -0.2866
    132  N         20.3870    4.3770   12.1030 N.3    92  ASP92      -0.1225
    133  CA        19.9680    5.3880   11.1310 C.3    92  ASP92       0.1805
    134  C         20.2030    5.0520    9.6610 C.2    92  ASP92       0.2598
    135  O         20.8270    5.8300    8.9190 O.2    92  ASP92      -0.2718
    136  CB        20.6690    6.7100   11.4950 C.3    92  ASP92       0.1424
    137  CG        20.1130    7.9000   10.7550 C.2    92  ASP92       0.3668
    138  OD1       19.0210    7.8090   10.1500 O.co2  92  ASP92      -0.2456
    139  OD2       20.7880    8.9490   10.7570 O.co2  92  ASP92      -0.2456
    140  N         19.6900    3.9000    9.2350 N.am   93  GLY93      -0.1942
    141  CA        19.8540    3.4570    7.8520 C.3    93  GLY93       0.2014
    142  C         20.7070    2.2040    7.7310 C.2    93  GLY93       0.2639
    143  O         20.4250    1.3100    6.9310 O.2    93  GLY93      -0.2714
    144  N         21.7670    2.1220    8.5330 N.am   94  LEU94      -0.1963
    145  CA        22.6320    0.9580    8.4820 C.3    94  LEU94       0.1728
    146  C         21.9370   -0.3230    8.9500 C.2    94  LEU94       0.2616
    147  O         20.8960   -0.2800    9.6150 O.2    94  LEU94      -0.2715
    148  CB        23.8870    1.1840    9.3250 C.3    94  LEU94       0.0311
    149  CG        24.7720    2.4040    9.0820 C.3    94  LEU94       0.0022
    150  CD1       26.0240    2.2140    9.9100 C.3    94  LEU94       0.0001
    151  CD2       25.1170    2.5360    7.5980 C.3    94  LEU94       0.0001
    152  N         22.5410   -1.4570    8.6250 N.am   95  CYS95      -0.1968
    153  CA        22.0310   -2.7660    9.0020 C.3    95  CYS95       0.1712
    154  C         22.0690   -3.0020   10.5070 C.2    95  CYS95       0.2296
    155  O         21.3550   -3.8640   11.0140 O.2    95  CYS95      -0.2864
    156  CB        22.8260   -3.8670    8.3030 C.3    95  CYS95       0.0983
    157  SG        24.5860   -3.9730    8.7890 S.3    95  CYS95      -0.0798
@<TRIPOS>BOND
     1    35    34    2
     2    34    33    1
     3    26    25    2
     4    33    36    1
     5    33    32    1
     6    36    37    1
     7    25    32   am
     8    25    24    1
     9    83    82    1
    10    82    81    1
    11    24    27    1
    12    24    23    1
    13    81    80    1
    14    27    28    1
    15    31    29   ar
    16    28    29    1
    17    29    30   ar
    18    80    79    1
    19    94    92    1
    20    93    92    1
    21    10     9    1
    22    92    91    2
    23    11     9    1
    24     9     8    2
    25    89    88    1
    26    89    90    1
    27     8     7    1
    28     7     6    1
    29    79    76    1
    30    91    90    1
    31    88    85    1
    32    85    86    1
    33    85    84    1
    34     5     6    1
    35     5     2    1
    36    76    75    1
    37    76    77    1
    38    43    42    1
    39    86    87    2
    40     1     2    1
    41    75    65   am
    42    21    20    1
    43     2     3    1
    44    77    78    2
    45    98    97    2
    46    60    58   ar
    47    60    62   ar
    48     3     4    2
    49    22    20    1
    50    56    55    2
    51    57    58    1
    52    57    54    1
    53    42    39    1
    54    20    19    2
    55    65    64    1
    56    65    66    2
    57    58    59   ar
    58    62    61   ar
    59    55    54    1
    60    55    63   am
    61   105   104    1
    62   105   106    2
    63   109   110    1
    64    64    63    1
    65    64    67    1
    66    97   103   am
    67    97    96    1
    68   104   103    1
    69   104   107    1
    70    38    39    1
    71    39    40    1
    72    59    61   ar
    73    54    53    1
    74   108   107    1
    75    53    46   am
    76    19    18    1
    77    96    95    1
    78    96    99    1
    79    15    14    2
    80   110   113    1
    81   110   111    1
    82   113   114    1
    83    18    17    1
    84    67    68    1
    85    14    13    1
    86    70    68   ar
    87    70    72   ar
    88    17    16    1
    89   101    99    1
    90    40    41    2
    91    68    69   ar
    92   114   115    1
    93    46    45    1
    94    46    47    2
    95    72    73   ar
    96   115   116    1
    97    45    48    1
    98    45    44    1
    99    99   100    1
   100    16    13    1
   101    49    48    1
   102    49    50    1
   103   111   112    2
   104   116   117    2
   105    51    50    1
   106    51    52    1
   107    13    12    1
   108   100   102    1
   109    73    74    1
   110    73    71   ar
   111    69    71   ar
   112   117   119    1
   113   117   118    1
   114   143   142    2
   115   151   149    1
   116   142   141    1
   117   142   144   am
   118   141   140    1
   119   131   130    1
   120   156   157    1
   121   156   153    1
   122   145   144    1
   123   145   146    1
   124   145   148    1
   125   152   146   am
   126   152   153    1
   127   135   134    2
   128   146   147    2
   129   153   154    1
   130   149   148    1
   131   149   150    1
   132   130   129   ar
   133   130   128   ar
   134   140   134   am
   135   129   127   ar
   136   134   133    1
   137   128   126   ar
   138   138   137   ar
   139   154   155    2
   140   127   125   ar
   141   137   139   ar
   142   137   136    1
   143   126   125   ar
   144   133   136    1
   145   133   132    1
   146   125   124    1
   147   124   121    1
   148   121   120    1
   149   121   122    1
   150   122   123    2
