@<TRIPOS>MOLECULE
tmp/1lkxC00.pdb
 211 206 0 0 0
SMALL
GASTEIGER

@<TRIPOS>ATOM
      1  N        115.3580  115.5350   22.4640 N.3    29  ILE29      -0.1231
      2  CA       115.9100  116.2150   23.6240 C.3    29  ILE29       0.1692
      3  C        117.3710  115.8960   23.9070 C.2    29  ILE29       0.2592
      4  O        118.1750  116.7940   24.1200 O.2    29  ILE29      -0.2718
      5  CB       115.1840  115.8150   24.9110 C.3    29  ILE29       0.0266
      6  CG1      113.7020  115.6120   24.6660 C.3    29  ILE29       0.0019
      7  CG2      115.4010  116.8700   25.9620 C.3    29  ILE29       0.0020
      8  CD1      113.0650  114.8890   25.8100 C.3    29  ILE29       0.0001
      9  N        117.7000  114.6100   23.9290 N.am   30  TYR30      -0.1976
     10  CA       119.0440  114.1650   24.2650 C.3    30  TYR30       0.1639
     11  C        120.0610  114.0240   23.1390 C.2    30  TYR30       0.2290
     12  O        119.7460  113.5680   22.0390 O.2    30  TYR30      -0.2864
     13  CB       118.9450  112.8430   25.0160 C.3    30  TYR30       0.0560
     14  CG       118.0230  112.9000   26.2090 C.ar   30  TYR30      -0.0198
     15  CD1      118.4130  113.5400   27.3760 C.ar   30  TYR30      -0.0009
     16  CD2      116.7370  112.3700   26.1490 C.ar   30  TYR30      -0.0009
     17  CE1      117.5470  113.6580   28.4490 C.ar   30  TYR30       0.0417
     18  CE2      115.8680  112.4860   27.2110 C.ar   30  TYR30       0.0417
     19  CZ       116.2780  113.1300   28.3550 C.ar   30  TYR30       0.1957
     20  OH       115.4170  113.2570   29.4080 O.3    30  TYR30      -0.2866
     21  N        115.1000  121.0650   27.4940 N.3    41  ASN41      -0.1226
     22  CA       113.7290  121.0770   27.9980 C.3    41  ASN41       0.1770
     23  C        112.6790  121.1270   26.8920 C.2    41  ASN41       0.2439
     24  O        112.5580  122.1270   26.1950 O.2    41  ASN41      -0.2733
     25  CB       113.5290  122.2640   28.9200 C.3    41  ASN41       0.1168
     26  CG       112.3000  122.1220   29.7620 C.2    41  ASN41       0.2627
     27  OD1      111.2620  121.6930   29.2770 O.2    41  ASN41      -0.2716
     28  ND2      112.4020  122.4810   31.0300 N.am   41  ASN41      -0.0877
     29  N        111.8980  120.0410   26.7320 N.am   42  PRO42      -0.2718
     30  CA       110.8460  119.9090   25.7220 C.3    42  PRO42       0.1535
     31  C        109.6540  120.7850   26.0070 C.2    42  PRO42       0.2599
     32  O        109.0260  121.3020   25.0880 O.2    42  PRO42      -0.2715
     33  CB       110.4630  118.4260   25.8050 C.3    42  PRO42       0.0310
     34  CG       111.6360  117.7750   26.4460 C.3    42  PRO42       0.0237
     35  CD       112.0320  118.7810   27.4810 C.3    42  PRO42       0.0939
     36  N        109.3460  120.9320   27.2900 N.am   43  PHE43      -0.1960
     37  CA       108.2010  121.7130   27.7380 C.3    43  PHE43       0.1771
     38  C        106.8840  121.0550   27.3020 C.2    43  PHE43       0.2619
     39  O        105.9170  121.7290   26.9320 O.2    43  PHE43      -0.2715
     40  CB       108.2980  123.1510   27.2240 C.3    43  PHE43       0.0574
     41  CG       109.2670  124.0020   27.9960 C.ar   43  PHE43      -0.0200
     42  CD1      109.1700  124.1010   29.3770 C.ar   43  PHE43      -0.0042
     43  CD2      110.2580  124.7230   27.3470 C.ar   43  PHE43      -0.0042
     44  CE1      110.0460  124.9070   30.1010 C.ar   43  PHE43      -0.0003
     45  CE2      111.1340  125.5290   28.0610 C.ar   43  PHE43      -0.0003
     46  CZ       111.0270  125.6220   29.4390 C.ar   43  PHE43      -0.0000
     47  N        106.8720  119.7240   27.3560 N.am   44  LYS44      -0.1963
     48  CA       105.7100  118.9100   27.0130 C.3    44  LYS44       0.1728
     49  C        106.1030  117.4490   27.1720 C.2    44  LYS44       0.2616
     50  O        107.2880  117.1190   27.1460 O.2    44  LYS44      -0.2715
     51  CB       105.2640  119.1740   25.5830 C.3    44  LYS44       0.0311
     52  CG       106.2140  118.6700   24.5410 C.3    44  LYS44       0.0038
     53  CD       105.5370  118.6580   23.1930 C.3    44  LYS44       0.0206
     54  CE       106.3990  117.9860   22.1480 C.3    44  LYS44       0.1093
     55  NZ       105.6570  117.7810   20.8720 N.3    44  LYS44      -0.1314
     56  N        105.1260  116.5710   27.3330 N.am   45  ASN45      -0.1958
     57  CA       105.4430  115.1710   27.5110 C.3    45  ASN45       0.1819
     58  C        105.8810  114.4670   26.2440 C.2    45  ASN45       0.2621
     59  O        105.2380  114.5770   25.2020 O.2    45  ASN45      -0.2715
     60  CB       104.2490  114.4160   28.0820 C.3    45  ASN45       0.1195
     61  CG       103.8260  114.9340   29.4330 C.2    45  ASN45       0.2630
     62  OD1      104.6480  115.0640   30.3430 O.2    45  ASN45      -0.2716
     63  ND2      102.5280  115.2240   29.5820 N.am   45  ASN45      -0.0877
     64  N        106.9850  113.7410   26.3450 N.am   46  LEU46      -0.1977
     65  CA       107.4800  112.9590   25.2260 C.3    46  LEU46       0.1596
     66  C        107.3900  111.5030   25.6760 C.2    46  LEU46       0.2287
     67  O        108.0900  111.0940   26.6000 O.2    46  LEU46      -0.2864
     68  CB       108.9270  113.3300   24.9020 C.3    46  LEU46       0.0297
     69  CG       109.0850  114.5330   23.9770 C.3    46  LEU46       0.0022
     70  CD1      108.3490  115.7220   24.5630 C.3    46  LEU46       0.0001
     71  CD2      110.5460  114.8480   23.7860 C.3    46  LEU46       0.0001
     72  N        109.7080  107.6930   28.1430 N.3    49  TYR49      -0.1241
     73  CA       110.1340  107.3010   29.4750 C.3    49  TYR49       0.1605
     74  C        109.2850  106.1450   29.9860 C.2    49  TYR49       0.2264
     75  O        108.9500  106.0720   31.1710 O.2    49  TYR49      -0.2867
     76  CB       110.0240  108.4930   30.4240 C.3    49  TYR49       0.0534
     77  CG       110.8160  109.6990   29.9800 C.ar   49  TYR49      -0.0201
     78  CD1      112.2000  109.6660   29.9400 C.ar   49  TYR49      -0.0009
     79  CD2      110.1760  110.8710   29.6050 C.ar   49  TYR49      -0.0009
     80  CE1      112.9190  110.7650   29.5410 C.ar   49  TYR49       0.0417
     81  CE2      110.8860  111.9740   29.2060 C.ar   49  TYR49       0.0417
     82  CZ       112.2520  111.9210   29.1740 C.ar   49  TYR49       0.1957
     83  OH       112.9570  113.0330   28.7770 O.3    49  TYR49      -0.2866
     84  N        117.8370  127.8200   36.0730 N.3    95  SER95      -0.1202
     85  CA       116.5430  127.5320   36.6730 C.3    95  SER95       0.2020
     86  C        115.5730  127.2500   35.5450 C.2    95  SER95       0.2619
     87  O        115.3940  128.0760   34.6590 O.2    95  SER95      -0.2717
     88  CB       116.0560  128.7270   37.4820 C.3    95  SER95       0.2103
     89  OG       114.6880  128.5720   37.8410 O.3    95  SER95      -0.2182
     90  N        114.9530  126.0800   35.5740 N.am   96  GLY96      -0.1942
     91  CA       114.0170  125.7200   34.5250 C.3    96  GLY96       0.2014
     92  C        114.5960  124.8940   33.3840 C.2    96  GLY96       0.2639
     93  O        113.8730  124.4980   32.4720 O.2    96  GLY96      -0.2714
     94  N        115.8980  124.6340   33.4160 N.am   97  ALA97      -0.1963
     95  CA       116.5310  123.8500   32.3690 C.3    97  ALA97       0.1728
     96  C        115.9970  122.4100   32.3810 C.2    97  ALA97       0.2617
     97  O        115.9810  121.7380   31.3430 O.2    97  ALA97      -0.2715
     98  CB       118.0390  123.8660   32.5640 C.3    97  ALA97       0.0334
     99  N        115.5620  121.9430   33.5550 N.am   98  GLY98      -0.1940
    100  CA       115.0220  120.6000   33.6660 C.3    98  GLY98       0.2014
    101  C        115.8320  119.6090   34.4770 C.2    98  GLY98       0.2639
    102  O        115.7470  118.4000   34.2470 O.2    98  GLY98      -0.2714
    103  N        116.6080  120.1030   35.4300 N.am   99  LYS99      -0.1963
    104  CA       117.4220  119.2340   36.2580 C.3    99  LYS99       0.1728
    105  C        116.5740  118.3260   37.1450 C.2    99  LYS99       0.2617
    106  O        116.8380  117.1340   37.2560 O.2    99  LYS99      -0.2715
    107  CB       118.3530  120.0840   37.1120 C.3    99  LYS99       0.0311
    108  CG       119.1250  121.1260   36.3090 C.3    99  LYS99       0.0038
    109  CD       120.0280  121.9590   37.2010 C.3    99  LYS99       0.0206
    110  CE       119.2110  122.7250   38.2490 C.3    99  LYS99       0.1093
    111  NZ       118.2900  123.7320   37.6460 N.3    99  LYS99      -0.1314
    112  N        115.5410  118.8890   37.7610 N.am  100  THR100     -0.1937
    113  CA       114.6860  118.1180   38.6500 C.3   100  THR100      0.2028
    114  C        114.0110  116.9520   37.9380 C.2   100  THR100      0.2642
    115  O        113.9010  115.8470   38.4800 O.2   100  THR100     -0.2714
    116  CB       113.6080  119.0090   39.3070 C.3   100  THR100      0.1808
    117  OG1      114.2250  119.8740   40.2640 O.3   100  THR100     -0.2208
    118  CG2      112.5680  118.1470   40.0190 C.3   100  THR100      0.0379
    119  N        113.5590  117.1860   36.7190 N.am  101  GLU101     -0.1976
    120  CA       112.9030  116.1220   36.0080 C.3   101  GLU101      0.1602
    121  C        113.8930  115.0530   35.5930 C.2   101  GLU101      0.2287
    122  O        113.5890  113.8700   35.6280 O.2   101  GLU101     -0.2864
    123  CB       112.1680  116.6780   34.7960 C.3   101  GLU101      0.0415
    124  CG       110.6780  116.3790   34.8540 C.3   101  GLU101      0.1163
    125  CD       110.0130  116.9670   36.0910 C.2   101  GLU101      0.3649
    126  OE1      108.8980  116.5010   36.4450 O.co2 101  GLU101     -0.2457
    127  OE2      110.6030  117.9000   36.6980 O.co2 101  GLU101     -0.2457
    128  N        114.0820  110.9290   36.2140 N.3   105  LYS105     -0.1245
    129  CA       114.1120  109.9280   35.1690 C.3   105  LYS105      0.1561
    130  C        115.2440  108.9770   35.5080 C.2   105  LYS105      0.2260
    131  O        115.1370  107.7790   35.3030 O.2   105  LYS105     -0.2867
    132  CB       114.3690  110.5720   33.8100 C.3   105  LYS105      0.0271
    133  CG       113.3420  111.6180   33.4130 C.3   105  LYS105      0.0035
    134  CD       111.9450  111.0500   33.4530 C.3   105  LYS105      0.0206
    135  CE       110.9070  112.1350   33.2590 C.3   105  LYS105      0.1093
    136  NZ       109.5350  111.5720   33.4650 N.3   105  LYS105     -0.1314
    137  N        109.3300  123.1350   46.8900 N.3   140  ASN140     -0.1240
    138  CA       109.1840  123.7730   45.5870 C.3   140  ASN140      0.1653
    139  C        108.1390  124.8970   45.5930 C.2   140  ASN140      0.2266
    140  O        107.2350  124.9000   46.4120 O.2   140  ASN140     -0.2867
    141  CB       108.8110  122.7310   44.5260 C.3   140  ASN140      0.1155
    142  CG       109.9700  121.8590   44.1360 C.2   140  ASN140      0.2627
    143  OD1      110.6130  121.2490   44.9780 O.2   140  ASN140     -0.2716
    144  ND2      110.2410  121.7900   42.8490 N.am  140  ASN140     -0.0877
    145  N        110.2400  129.4210   36.8120 N.3   146  ASN146     -0.1240
    146  CA       109.7300  128.0550   36.7840 C.3   146  ASN146      0.1653
    147  C        108.5180  127.8390   37.6930 C.2   146  ASN146      0.2266
    148  O        108.5330  128.2020   38.8670 O.2   146  ASN146     -0.2867
    149  CB       110.8720  127.1050   37.1980 C.3   146  ASN146      0.1155
    150  CG       110.4880  125.6410   37.1180 C.2   146  ASN146      0.2627
    151  OD1      109.3400  125.3050   36.8640 O.2   146  ASN146     -0.2716
    152  ND2      111.4580  124.7610   37.3400 N.am  146  ASN146     -0.0877
    153  N        107.5800  125.1270   38.9070 N.3   148  ASN148     -0.1225
    154  CA       107.8950  124.1660   39.9410 C.3   148  ASN148      0.1785
    155  C        109.0600  124.6460   40.7810 C.2   148  ASN148      0.2598
    156  O        108.9840  124.6770   41.9960 O.2   148  ASN148     -0.2718
    157  CB       108.1170  122.7900   39.3250 C.3   148  ASN148      0.1169
    158  CG       106.8730  122.2990   38.6090 C.2   148  ASN148      0.2627
    159  OD1      105.7540  122.4730   39.0980 O.2   148  ASN148     -0.2716
    160  ND2      107.0580  121.6870   37.4460 N.am  148  ASN148     -0.0877
    161  N        110.1560  125.0280   40.1520 N.am  149  SER149     -0.1938
    162  CA       111.3320  125.5230   40.8670 C.3   149  SER149      0.2055
    163  C        111.6420  124.9840   42.2740 C.2   149  SER149      0.2643
    164  O        110.9680  125.3140   43.2620 O.2   149  SER149     -0.2714
    165  CB       111.2980  127.0460   40.9420 C.3   149  SER149      0.2130
    166  OG       112.5350  127.5420   41.4290 O.3   149  SER149     -0.2179
    167  N        112.7060  124.1800   42.3410 N.am  150  SER150     -0.1949
    168  CA       113.2030  123.6060   43.5830 C.3   150  SER150      0.1924
    169  C        113.8720  124.7450   44.3610 C.2   150  SER150      0.2314
    170  O        114.7710  125.4100   43.8460 O.2   150  SER150     -0.2863
    171  CB       114.2320  122.5190   43.2800 C.3   150  SER150      0.2116
    172  OG       113.7460  121.5930   42.3270 O.3   150  SER150     -0.2180
    173  N         99.6200  125.2190   35.3760 N.3   231  THR231     -0.1218
    174  CA       100.5330  124.0770   35.3890 C.3   231  THR231      0.1862
    175  C        100.2710  123.0820   36.5240 C.2   231  THR231      0.2287
    176  O        100.4930  121.8790   36.3790 O.2   231  THR231     -0.2866
    177  CB       102.0030  124.5590   35.5350 C.3   231  THR231      0.1770
    178  OG1      102.2100  125.7350   34.7400 O.3   231  THR231     -0.2211
    179  CG2      102.9780  123.4630   35.0950 C.3   231  THR231      0.0375
    180  N        120.6940  117.4780   42.4090 N.3   368  ASP368     -0.1225
    181  CA       119.6380  118.3550   41.9080 C.3   368  ASP368      0.1805
    182  C        119.6290  119.6460   42.7210 C.2   368  ASP368      0.2598
    183  O        119.0540  119.7040   43.8020 O.2   368  ASP368     -0.2718
    184  CB       118.2830  117.6680   42.0160 C.3   368  ASP368      0.1424
    185  CG       117.1460  118.5970   41.6770 C.2   368  ASP368      0.3668
    186  OD1      117.2670  119.3090   40.6530 O.co2 368  ASP368     -0.2456
    187  OD2      116.1380  118.6150   42.4260 O.co2 368  ASP368     -0.2456
    188  N        120.2760  120.6790   42.2020 N.am  369  ILE369     -0.1966
    189  CA       120.3440  121.9470   42.9110 C.3   369  ILE369      0.1727
    190  C        119.4770  123.0240   42.2690 C.2   369  ILE369      0.2616
    191  O        118.9730  122.8510   41.1660 O.2   369  ILE369     -0.2715
    192  CB       121.8030  122.4600   42.9650 C.3   369  ILE369      0.0290
    193  CG1      122.3800  122.5500   41.5550 C.3   369  ILE369      0.0022
    194  CG2      122.6590  121.5270   43.7740 C.3   369  ILE369      0.0023
    195  CD1      122.0900  123.8460   40.8470 C.3   369  ILE369      0.0001
    196  N        119.2870  124.1290   42.9790 N.am  370  TYR370     -0.1960
    197  CA       118.5250  125.2280   42.4250 C.3   370  TYR370      0.1771
    198  C        119.4360  125.8350   41.3820 C.2   370  TYR370      0.2620
    199  O        120.5730  126.1670   41.6730 O.2   370  TYR370     -0.2715
    200  CB       118.2040  126.3140   43.4600 C.3   370  TYR370      0.0574
    201  CG       118.8520  126.1890   44.8230 C.ar  370  TYR370     -0.0198
    202  CD1      120.1970  125.8650   44.9600 C.ar  370  TYR370     -0.0009
    203  CD2      118.1000  126.3860   45.9830 C.ar  370  TYR370     -0.0009
    204  CE1      120.7730  125.7270   46.2190 C.ar  370  TYR370      0.0417
    205  CE2      118.6630  126.2500   47.2380 C.ar  370  TYR370      0.0417
    206  CZ       119.9970  125.9130   47.3540 C.ar  370  TYR370      0.1957
    207  OH       120.5290  125.7020   48.6070 O.3   370  TYR370     -0.2866
    208  N        118.9300  125.9830   40.1690 N.am  371  GLY371     -0.1954
    209  CA       119.7210  126.5520   39.0970 C.3   371  GLY371      0.1869
    210  C        119.8150  128.0670   39.0910 C.2   371  GLY371      0.2309
    211  O        119.0460  128.7700   39.7440 O.2   371  GLY371     -0.2863
@<TRIPOS>BOND
     1    55    54    1
     2    12    11    2
     3    54    53    1
     4     1     2    1
     5    11    10    1
     6    53    52    1
     7     2     3    1
     8     2     5    1
     9    71    69    1
    10     3     9   am
    11     3     4    2
    12     9    10    1
    13    69    70    1
    14    69    68    1
    15    10    13    1
    16    52    51    1
    17     6     5    1
    18     6     8    1
    19    68    65    1
    20     5     7    1
    21    13    14    1
    22    32    31    2
    23    59    58    2
    24    65    66    1
    25    65    64    1
    26    51    48    1
    27    66    67    2
    28    30    33    1
    29    30    31    1
    30    30    29    1
    31    33    34    1
    32    31    36   am
    33    16    14   ar
    34    16    18   ar
    35    24    23    2
    36    14    15   ar
    37    58    64   am
    38    58    57    1
    39    34    35    1
    40    29    23   am
    41    29    35    1
    42    23    22    1
    43    39    38    2
    44    48    49    1
    45    48    47    1
    46    50    49    2
    47    49    56   am
    48    18    19   ar
    49    40    37    1
    50    40    41    1
    51    36    37    1
    52    38    47   am
    53    38    37    1
    54    56    57    1
    55    43    41   ar
    56    43    45   ar
    57    15    17   ar
    58    21    22    1
    59    57    60    1
    60    41    42   ar
    61    22    25    1
    62    45    46   ar
    63    60    61    1
    64    72    73    1
    65    19    17   ar
    66    19    20    1
    67    83    82    1
    68    25    26    1
    69    82    81   ar
    70    82    80   ar
    71    81    79   ar
    72    27    26    2
    73    42    44   ar
    74    61    63   am
    75    61    62    2
    76    46    44   ar
    77    73    74    1
    78    73    76    1
    79    80    78   ar
    80    79    77   ar
    81    26    28   am
    82    78    77   ar
    83    77    76    1
    84    74    75    2
    85    97    96    2
    86    95    96    1
    87    95    98    1
    88    95    94    1
    89    96    99   am
    90    93    92    2
    91   135   134    1
    92   135   136    1
    93    92    94   am
    94    92    91    1
    95   133   134    1
    96   133   132    1
    97    99   100    1
    98   100   101    1
    99   132   129    1
   100   102   101    2
   101   101   103   am
   102    91    90    1
   103    87    86    2
   104   178   177    1
   105   123   124    1
   106   123   120    1
   107   124   125    1
   108   179   177    1
   109   129   130    1
   110   129   128    1
   111   131   130    2
   112   173   174    1
   113   174   177    1
   114   174   175    1
   115   103   104    1
   116    86    90   am
   117    86    85    1
   118   121   122    2
   119   121   120    1
   120   120   119    1
   121    84    85    1
   122   125   126   ar
   123   125   127   ar
   124   104   107    1
   125   104   105    1
   126   108   107    1
   127   108   109    1
   128   176   175    2
   129    85    88    1
   130   119   114   am
   131   146   145    1
   132   146   149    1
   133   146   147    1
   134   151   150    2
   135   150   149    1
   136   150   152   am
   137   105   106    2
   138   105   112   am
   139   109   110    1
   140   160   158   am
   141    88    89    1
   142   111   110    1
   143   147   148    2
   144   112   113    1
   145   114   115    2
   146   114   113    1
   147   158   159    2
   148   158   157    1
   149   113   116    1
   150   153   154    1
   151   210   209    1
   152   210   211    2
   153   209   208    1
   154   116   118    1
   155   116   117    1
   156   157   154    1
   157   154   155    1
   158   161   155   am
   159   161   162    1
   160   208   198   am
   161   186   185   ar
   162   155   156    2
   163   195   193    1
   164   162   165    1
   165   162   163    1
   166   165   166    1
   167   191   190    2
   168   198   199    2
   169   198   197    1
   170   193   192    1
   171   185   184    1
   172   185   187   ar
   173   181   184    1
   174   181   180    1
   175   181   182    1
   176   188   182   am
   177   188   189    1
   178   190   189    1
   179   190   196   am
   180   163   167   am
   181   163   164    2
   182   172   171    1
   183   167   168    1
   184   197   196    1
   185   197   200    1
   186   182   183    2
   187   144   142   am
   188   189   192    1
   189   192   194    1
   190   171   168    1
   191   200   201    1
   192   168   169    1
   193   170   169    2
   194   142   141    1
   195   142   143    2
   196   141   138    1
   197   201   202   ar
   198   201   203   ar
   199   202   204   ar
   200   138   139    1
   201   138   137    1
   202   139   140    2
   203   203   205   ar
   204   204   206   ar
   205   205   206   ar
   206   206   207    1
