@<TRIPOS>MOLECULE
tmp/1ll4B01.pdb
 153 149 0 0 0
SMALL
GASTEIGER

@<TRIPOS>ATOM
      1  N         67.1660   56.9780   50.2250 N.3     8  TYR8       -0.1241
      2  CA        66.2310   55.8910   50.2150 C.3     8  TYR8        0.1605
      3  C         66.0050   55.4470   51.6470 C.2     8  TYR8        0.2264
      4  O         66.9260   55.4430   52.4640 O.2     8  TYR8       -0.2867
      5  CB        66.7810   54.7650   49.3760 C.3     8  TYR8        0.0534
      6  CG        66.6750   55.0220   47.8860 C.ar    8  TYR8       -0.0201
      7  CD1       67.5930   55.8490   47.2410 C.ar    8  TYR8       -0.0009
      8  CD2       65.6190   54.4280   47.1660 C.ar    8  TYR8       -0.0009
      9  CE1       67.4420   56.0880   45.8750 C.ar    8  TYR8        0.0417
     10  CE2       65.4710   54.6630   45.7910 C.ar    8  TYR8        0.0417
     11  CZ        66.3900   55.4980   45.1580 C.ar    8  TYR8        0.1957
     12  OH        66.2660   55.7500   43.8080 O.3     8  TYR8       -0.2866
     13  N         62.4230   47.4770   55.3010 N.3    12  TRP12      -0.1241
     14  CA        62.9950   46.5580   56.2550 C.3    12  TRP12       0.1605
     15  C         63.9350   47.1190   57.3130 C.2    12  TRP12       0.2264
     16  O         64.3570   46.3770   58.2120 O.2    12  TRP12      -0.2867
     17  CB        63.6990   45.4570   55.4630 C.3    12  TRP12       0.0550
     18  CG        64.9020   45.7900   54.5800 C.ar   12  TRP12       0.0003
     19  CD1       66.1830   45.6830   55.0880 C.ar   12  TRP12       0.0946
     20  CD2       64.8680   46.1040   53.2410 C.ar   12  TRP12       0.0152
     21  NE1       66.9710   45.9140   54.0720 N.ar   12  TRP12      -0.2442
     22  CE2       66.2500   46.1690   52.9550 C.ar   12  TRP12       0.0810
     23  CE3       63.9360   46.3250   52.2350 C.ar   12  TRP12       0.0012
     24  CZ2       66.6970   46.4580   51.6600 C.ar   12  TRP12       0.0191
     25  CZ3       64.3990   46.6060   50.9430 C.ar   12  TRP12       0.0001
     26  CH2       65.7550   46.6740   50.6530 C.ar   12  TRP12       0.0015
     27  N         61.0210   48.8720   49.2130 N.3    36  PHE36      -0.1241
     28  CA        60.6410   48.7610   47.8020 C.3    36  PHE36       0.1605
     29  C         59.2090   48.2810   47.7030 C.2    36  PHE36       0.2264
     30  O         58.6250   47.8040   48.6960 O.2    36  PHE36      -0.2867
     31  CB        61.5170   47.7430   47.0640 C.3    36  PHE36       0.0534
     32  CG        62.7900   48.3510   46.5380 C.ar   36  PHE36      -0.0203
     33  CD1       62.7340   49.3870   45.5950 C.ar   36  PHE36      -0.0042
     34  CD2       64.0160   47.8960   47.0170 C.ar   36  PHE36      -0.0042
     35  CE1       63.9250   49.9750   45.1360 C.ar   36  PHE36      -0.0003
     36  CE2       65.1840   48.4920   46.5470 C.ar   36  PHE36      -0.0003
     37  CZ        65.1530   49.5290   45.6120 C.ar   36  PHE36      -0.0000
     38  N         66.9160   45.1450   43.2270 N.3    96  TRP96      -0.1241
     39  CA        67.6700   44.0560   42.6090 C.3    96  TRP96       0.1605
     40  C         66.8530   42.7450   42.6870 C.2    96  TRP96       0.2264
     41  O         66.5640   42.0610   41.6970 O.2    96  TRP96      -0.2867
     42  CB        69.0410   43.9160   43.3190 C.3    96  TRP96       0.0550
     43  CG        69.8550   42.7880   42.6600 C.ar   96  TRP96       0.0003
     44  CD1       70.0440   41.5870   43.2980 C.ar   96  TRP96       0.0946
     45  CD2       70.3020   42.7460   41.3580 C.ar   96  TRP96       0.0152
     46  NE1       70.5580   40.7900   42.3920 N.ar   96  TRP96      -0.2442
     47  CE2       70.7250   41.4200   41.2430 C.ar   96  TRP96       0.0810
     48  CE3       70.3880   43.6130   40.2650 C.ar   96  TRP96       0.0012
     49  CZ2       71.2320   40.9130   40.0600 C.ar   96  TRP96       0.0191
     50  CZ3       70.9000   43.1200   39.0620 C.ar   96  TRP96       0.0001
     51  CH2       71.3160   41.7760   38.9640 C.ar   96  TRP96       0.0015
     52  N         62.8970   51.0790   39.7870 N.3   134  ASP134     -0.1239
     53  CA        64.2460   50.5500   39.8660 C.3   134  ASP134      0.1674
     54  C         64.2940   49.1610   39.2230 C.2   134  ASP134      0.2266
     55  O         64.2650   48.1350   39.9250 O.2   134  ASP134     -0.2867
     56  CB        64.6760   50.4770   41.3300 C.3   134  ASP134      0.1410
     57  CG        66.1200   50.0030   41.5410 C.2   134  ASP134      0.3668
     58  OD1       66.4230   49.6020   42.6580 O.co2 134  ASP134     -0.2456
     59  OD2       66.9510   50.0440   40.6340 O.co2 134  ASP134     -0.2456
     60  N         66.4230   46.6850   37.3590 N.3   136  GLU136     -0.1196
     61  CA        67.8100   46.2900   37.1940 C.3   136  GLU136      0.1783
     62  C         67.9200   44.8990   36.5540 C.2   136  GLU136      0.2306
     63  O         67.8460   43.9120   37.2670 O.2   136  GLU136     -0.2863
     64  CB        68.5000   46.2550   38.5790 C.2   136  GLU136      0.0071
     65  CG        68.4070   47.5170   39.4390 C.2   136  GLU136      0.0834
     66  CD        69.1620   47.4850   40.7750 C.2   136  GLU136      0.3877
     67  OE1       70.2510   46.9270   40.8260 O.co2 136  GLU136     -0.2406
     68  OE2       68.6930   48.0310   41.7740 O.co2 136  GLU136     -0.2406
     69  N         66.0870   54.7230   39.2850 N.3   176  ALA176     -0.1245
     70  CA        67.4250   54.4070   39.8020 C.3   176  ALA176      0.1562
     71  C         68.1490   53.8490   38.5640 C.2   176  ALA176      0.2260
     72  O         67.6270   52.9350   37.9070 O.2   176  ALA176     -0.2867
     73  CB        67.3280   53.3460   40.8850 C.3   176  ALA176      0.0290
     74  N         73.1060   55.0290   40.1470 N.3   202  MET202     -0.1196
     75  CA        73.6900   54.1630   41.1740 C.3   202  MET202      0.1786
     76  C         75.1730   54.0260   40.8390 C.2   202  MET202      0.2306
     77  O         75.6300   53.0970   40.1770 O.2   202  MET202     -0.2863
     78  CB        72.9900   52.7920   41.1650 C.2   202  MET202      0.0070
     79  CG        71.4900   52.8280   41.4330 C.2   202  MET202      0.0282
     80  SD        70.6730   51.2100   41.4970 S.3   202  MET202     -0.1125
     81  CE        70.4600   50.9510   39.7570 C.3   202  MET202      0.0742
     82  N         77.8750   53.1130   42.2280 N.3   204  TYR204     -0.1227
     83  CA        78.4100   52.2680   43.2680 C.3   204  TYR204      0.1736
     84  C         78.1880   50.8230   42.8710 C.2   204  TYR204      0.2595
     85  O         77.6170   50.5390   41.8080 O.2   204  TYR204     -0.2718
     86  CB        77.7430   52.5430   44.6270 C.3   204  TYR204      0.0548
     87  CG        76.2490   52.7710   44.6500 C.ar  204  TYR204     -0.0200
     88  CD1       75.3800   51.7210   44.3510 C.ar  204  TYR204     -0.0009
     89  CD2       75.7440   54.0240   45.0200 C.ar  204  TYR204     -0.0009
     90  CE1       73.9940   51.9020   44.4230 C.ar  204  TYR204      0.0417
     91  CE2       74.3620   54.2070   45.0910 C.ar  204  TYR204      0.0417
     92  CZ        73.4960   53.1420   44.7990 C.ar  204  TYR204      0.1957
     93  OH        72.1450   53.2950   44.9360 O.3   204  TYR204     -0.2866
     94  N         78.6590   49.9000   43.7220 N.am  205  ASP205     -0.1974
     95  CA        78.6900   48.4590   43.4570 C.3   205  ASP205      0.1709
     96  C         79.5140   48.0960   42.2170 C.2   205  ASP205      0.2293
     97  O         79.2510   47.1720   41.4580 O.2   205  ASP205     -0.2864
     98  CB        77.2430   47.9370   43.3360 C.3   205  ASP205      0.1436
     99  CG        76.4310   48.1410   44.6060 C.2   205  ASP205      0.3671
    100  OD1       75.2090   48.1330   44.5180 O.co2 205  ASP205     -0.2456
    101  OD2       76.9920   48.3220   45.6850 O.co2 205  ASP205     -0.2456
    102  N         77.2660   52.5120   52.8340 N.3   258  TYR258     -0.1241
    103  CA        77.7680   51.1910   53.2490 C.3   258  TYR258      0.1605
    104  C         79.1110   50.9910   52.5260 C.2   258  TYR258      0.2264
    105  O         79.4430   51.7780   51.6280 O.2   258  TYR258     -0.2867
    106  CB        76.8120   50.0470   52.8330 C.3   258  TYR258      0.0534
    107  CG        76.5470   49.9820   51.3350 C.ar  258  TYR258     -0.0201
    108  CD1       75.5480   50.7980   50.8070 C.ar  258  TYR258     -0.0009
    109  CD2       77.3080   49.1680   50.4870 C.ar  258  TYR258     -0.0009
    110  CE1       75.2980   50.8320   49.4310 C.ar  258  TYR258      0.0417
    111  CE2       77.0600   49.1910   49.1100 C.ar  258  TYR258      0.0417
    112  CZ        76.0570   50.0330   48.5930 C.ar  258  TYR258      0.1957
    113  OH        75.8170   50.1170   47.2430 O.3   258  TYR258     -0.2866
    114  N         81.8690   47.8900   50.6560 N.3   260  ARG260     -0.1245
    115  CA        82.1180   46.4980   50.2930 C.3   260  ARG260      0.1563
    116  C         83.5510   46.0000   50.6040 C.2   260  ARG260      0.2260
    117  O         84.5780   46.6030   50.2860 O.2   260  ARG260     -0.2867
    118  CB        81.8010   46.3040   48.8240 C.3   260  ARG260      0.0307
    119  CG        80.3140   46.2330   48.6060 C.3   260  ARG260      0.0489
    120  CD        80.1080   45.7060   47.2190 C.3   260  ARG260      0.2205
    121  NE        78.7520   45.9420   46.7970 N.pl3 260  ARG260     -0.0865
    122  CZ        77.7550   45.0760   47.0090 C.cat 260  ARG260      0.5346
    123  NH1       77.9690   43.9190   47.6230 N.pl3 260  ARG260      0.1354
    124  NH2       76.5090   45.4100   46.6720 N.pl3 260  ARG260      0.1354
    125  N         79.3800   43.3770   53.1840 N.3   284  VAL284     -0.1245
    126  CA        78.7760   44.7010   53.1300 C.3   284  VAL284      0.1561
    127  C         78.7530   45.2380   54.5680 C.2   284  VAL284      0.2260
    128  O         78.2120   44.6040   55.4810 O.2   284  VAL284     -0.2867
    129  CB        77.3260   44.5860   52.4980 C.3   284  VAL284      0.0252
    130  CG1       76.6710   45.9550   52.4790 C.3   284  VAL284      0.0019
    131  CG2       77.3630   44.1540   51.0400 C.3   284  VAL284      0.0019
    132  N         72.5080   61.4780   45.8350 N.3   341  MET341     -0.1245
    133  CA        71.5480   60.4530   46.2290 C.3   341  MET341      0.1570
    134  C         72.2570   59.4730   47.1440 C.2   341  MET341      0.2261
    135  O         73.4220   59.1700   46.8920 O.2   341  MET341     -0.2867
    136  CB        71.0150   59.7500   44.9770 C.3   341  MET341      0.0387
    137  CG        70.0860   58.5740   45.2610 C.3   341  MET341      0.0595
    138  SD        70.8800   56.9690   45.6430 S.3   341  MET341     -0.1393
    139  CE        70.8960   56.3400   43.9810 C.3   341  MET341      0.0692
    140  N         72.0620   55.5630   49.2170 N.3   343  TRP343     -0.1241
    141  CA        71.5210   54.2420   49.5690 C.3   343  TRP343      0.1605
    142  C         72.4290   53.7380   50.7040 C.2   343  TRP343      0.2264
    143  O         73.6250   53.4940   50.4810 O.2   343  TRP343     -0.2867
    144  CB        71.6140   53.2330   48.3920 C.3   343  TRP343      0.0550
    145  CG        71.0480   51.8550   48.7590 C.ar  343  TRP343      0.0003
    146  CD1       71.7490   50.9030   49.4620 C.ar  343  TRP343      0.0946
    147  CD2       69.7760   51.4430   48.5090 C.ar  343  TRP343      0.0152
    148  NE1       70.9250   49.9150   49.6760 N.ar  343  TRP343     -0.2442
    149  CE2       69.7460   50.1840   49.1310 C.ar  343  TRP343      0.0810
    150  CE3       68.6510   51.9440   47.8540 C.ar  343  TRP343      0.0012
    151  CZ2       68.5910   49.4120   49.1110 C.ar  343  TRP343      0.0191
    152  CZ3       67.4910   51.1590   47.8340 C.ar  343  TRP343      0.0001
    153  CH2       67.4660   49.9110   48.4570 C.ar  343  TRP343      0.0015
@<TRIPOS>BOND
     1    62    61    1
     2    62    63    2
     3    61    60    1
     4    61    64    1
     5    72    71    2
     6    71    70    1
     7    64    65    2
     8    51    50   ar
     9    51    49   ar
    10    50    48   ar
    11    54    53    1
    12    54    55    2
    13    69    70    1
    14    65    66    1
    15    81    80    1
    16    52    53    1
    17    70    73    1
    18    53    56    1
    19    49    47   ar
    20    74    75    1
    21    77    76    2
    22    48    45   ar
    23    59    57   ar
    24    66    67   ar
    25    66    68   ar
    26    76    75    1
    27    78    75    1
    28    78    79    2
    29    47    45   ar
    30    47    46   ar
    31    56    57    1
    32    45    43   ar
    33    79    80    1
    34    97    96    2
    35    57    58   ar
    36    41    40    2
    37    85    84    2
    38    96    95    1
    39    82    83    1
    40    46    44   ar
    41    39    40    1
    42    39    38    1
    43    39    42    1
    44    43    44   ar
    45    43    42    1
    46    84    83    1
    47    84    94   am
    48    83    86    1
    49    98    95    1
    50    98    99    1
    51    95    94    1
    52    12    11    1
    53   139   138    1
    54    88    90   ar
    55    88    87   ar
    56    90    92   ar
    57   100    99   ar
    58    99   101   ar
    59    86    87    1
    60    87    89   ar
    61    92    93    1
    62    92    91   ar
    63   136   137    1
    64   136   133    1
    65    89    91   ar
    66    35    33   ar
    67    35    37   ar
    68    11    10   ar
    69    11     9   ar
    70   137   138    1
    71    33    32   ar
    72    37    36   ar
    73    10     8   ar
    74   132   133    1
    75     9     7   ar
    76   133   134    1
    77    32    34   ar
    78    32    31    1
    79    36    34   ar
    80   124   122    1
    81   121   122    2
    82   121   120    1
    83   135   134    2
    84   122   123    1
    85    31    28    1
    86     8     6   ar
    87   120   119    1
    88     7     6   ar
    89   113   112    1
    90    29    28    1
    91    29    30    2
    92    28    27    1
    93   152   150   ar
    94   152   153   ar
    95   150   147   ar
    96     6     5    1
    97   144   145    1
    98   144   141    1
    99   153   151   ar
   100   147   145   ar
   101   147   149   ar
   102   112   111   ar
   103   112   110   ar
   104   119   118    1
   105   145   146   ar
   106   118   115    1
   107   111   109   ar
   108   151   149   ar
   109   149   148   ar
   110   140   141    1
   111     5     2    1
   112   110   108   ar
   113   146   148   ar
   114   141   142    1
   115     2     1    1
   116     2     3    1
   117   117   116    2
   118   115   116    1
   119   115   114    1
   120   143   142    2
   121   109   107   ar
   122    26    25   ar
   123    26    24   ar
   124   108   107   ar
   125    25    23   ar
   126   131   129    1
   127   107   106    1
   128   105   104    2
   129     3     4    2
   130    24    22   ar
   131    23    20   ar
   132   130   129    1
   133   129   126    1
   134   104   103    1
   135   106   103    1
   136   102   103    1
   137    22    20   ar
   138    22    21   ar
   139   126   125    1
   140   126   127    1
   141    20    18   ar
   142    21    19   ar
   143   127   128    2
   144    18    19   ar
   145    18    17    1
   146    13    14    1
   147    17    14    1
   148    14    15    1
   149    15    16    2
