@<TRIPOS>MOLECULE
tmp/1ll4B00.pdb
 149 151 0 0 0
SMALL
GASTEIGER

@<TRIPOS>ATOM
      1  N         62.4230   47.4770   55.3010 N.3    12  TRP12      -0.1241
      2  CA        62.9950   46.5580   56.2550 C.3    12  TRP12       0.1605
      3  C         63.9350   47.1190   57.3130 C.2    12  TRP12       0.2264
      4  O         64.3570   46.3770   58.2120 O.2    12  TRP12      -0.2867
      5  CB        63.6990   45.4570   55.4630 C.3    12  TRP12       0.0550
      6  CG        64.9020   45.7900   54.5800 C.ar   12  TRP12       0.0003
      7  CD1       66.1830   45.6830   55.0880 C.ar   12  TRP12       0.0946
      8  CD2       64.8680   46.1040   53.2410 C.ar   12  TRP12       0.0152
      9  NE1       66.9710   45.9140   54.0720 N.ar   12  TRP12      -0.2442
     10  CE2       66.2500   46.1690   52.9550 C.ar   12  TRP12       0.0810
     11  CE3       63.9360   46.3250   52.2350 C.ar   12  TRP12       0.0012
     12  CZ2       66.6970   46.4580   51.6600 C.ar   12  TRP12       0.0191
     13  CZ3       64.3990   46.6060   50.9430 C.ar   12  TRP12       0.0001
     14  CH2       65.7550   46.6740   50.6530 C.ar   12  TRP12       0.0015
     15  N         67.7810   46.7980   61.8250 N.3    17  ARG17      -0.1245
     16  CA        68.5390   48.0300   61.8440 C.3    17  ARG17       0.1563
     17  C         68.0130   49.0150   62.8670 C.2    17  ARG17       0.2260
     18  O         68.7630   49.9070   63.2650 O.2    17  ARG17      -0.2867
     19  CB        68.5010   48.6620   60.4750 C.3    17  ARG17       0.0307
     20  CG        69.2960   47.8790   59.4850 C.3    17  ARG17       0.0489
     21  CD        69.0690   48.4470   58.1120 C.3    17  ARG17       0.2205
     22  NE        69.9110   47.8500   57.0880 N.pl3  17  ARG17      -0.0865
     23  CZ        69.8240   46.5500   56.7380 C.cat  17  ARG17       0.5346
     24  NH1       68.9710   45.6760   57.2960 N.pl3  17  ARG17       0.1354
     25  NH2       70.6270   46.1090   55.7640 N.pl3  17  ARG17       0.1354
     26  N         61.0210   48.8720   49.2130 N.3    36  PHE36      -0.1241
     27  CA        60.6410   48.7610   47.8020 C.3    36  PHE36       0.1605
     28  C         59.2090   48.2810   47.7030 C.2    36  PHE36       0.2264
     29  O         58.6250   47.8040   48.6960 O.2    36  PHE36      -0.2867
     30  CB        61.5170   47.7430   47.0640 C.3    36  PHE36       0.0534
     31  CG        62.7900   48.3510   46.5380 C.ar   36  PHE36      -0.0203
     32  CD1       62.7340   49.3870   45.5950 C.ar   36  PHE36      -0.0042
     33  CD2       64.0160   47.8960   47.0170 C.ar   36  PHE36      -0.0042
     34  CE1       63.9250   49.9750   45.1360 C.ar   36  PHE36      -0.0003
     35  CE2       65.1840   48.4920   46.5470 C.ar   36  PHE36      -0.0003
     36  CZ        65.1530   49.5290   45.6120 C.ar   36  PHE36      -0.0000
     37  N         63.9310   47.0620   42.6050 N.3    95  GLY95      -0.1210
     38  CA        65.0220   46.6610   43.4600 C.3    95  GLY95       0.1956
     39  C         65.6620   45.4610   42.8150 C.2    95  GLY95       0.2612
     40  O         64.9980   44.7960   42.0000 O.2    95  GLY95      -0.2717
     41  N         66.9160   45.1450   43.2270 N.am   96  TRP96      -0.1962
     42  CA        67.6700   44.0560   42.6090 C.3    96  TRP96       0.1771
     43  C         66.8530   42.7450   42.6870 C.2    96  TRP96       0.2620
     44  O         66.5640   42.0610   41.6970 O.2    96  TRP96      -0.2715
     45  CB        69.0410   43.9160   43.3190 C.3    96  TRP96       0.0590
     46  CG        69.8550   42.7880   42.6600 C.ar   96  TRP96       0.0006
     47  CD1       70.0440   41.5870   43.2980 C.ar   96  TRP96       0.0946
     48  CD2       70.3020   42.7460   41.3580 C.ar   96  TRP96       0.0152
     49  NE1       70.5580   40.7900   42.3920 N.ar   96  TRP96      -0.2442
     50  CE2       70.7250   41.4200   41.2430 C.ar   96  TRP96       0.0810
     51  CE3       70.3880   43.6130   40.2650 C.ar   96  TRP96       0.0012
     52  CZ2       71.2320   40.9130   40.0600 C.ar   96  TRP96       0.0191
     53  CZ3       70.9000   43.1200   39.0620 C.ar   96  TRP96       0.0001
     54  CH2       71.3160   41.7760   38.9640 C.ar   96  TRP96       0.0015
     55  N         66.3870   42.5020   43.9050 N.am   97  THR97      -0.1937
     56  CA        65.5110   41.4200   44.2850 C.3    97  THR97       0.2028
     57  C         64.1550   41.3150   43.5500 C.2    97  THR97       0.2642
     58  O         63.6610   40.1990   43.3480 O.2    97  THR97      -0.2714
     59  CB        65.4600   41.6610   45.7960 C.3    97  THR97       0.1808
     60  OG1       66.7360   41.2360   46.2900 O.3    97  THR97      -0.2208
     61  CG2       64.2570   41.0740   46.4410 C.3    97  THR97       0.0379
     62  N         63.4720   42.3940   43.1470 N.am   98  TYR98      -0.1973
     63  CA        62.1800   42.2440   42.4710 C.3    98  TYR98       0.1639
     64  C         62.2640   42.5110   40.9750 C.2    98  TYR98       0.2290
     65  O         61.3110   42.2990   40.2270 O.2    98  TYR98      -0.2864
     66  CB        61.1450   43.1860   43.0840 C.3    98  TYR98       0.0560
     67  CG        60.8390   42.9740   44.5580 C.ar   98  TYR98      -0.0198
     68  CD1       60.4270   44.0470   45.3570 C.ar   98  TYR98      -0.0009
     69  CD2       60.9720   41.7200   45.1290 C.ar   98  TYR98      -0.0009
     70  CE1       60.1550   43.8560   46.7070 C.ar   98  TYR98       0.0417
     71  CE2       60.7030   41.5300   46.4810 C.ar   98  TYR98       0.0417
     72  CZ        60.2990   42.5910   47.2570 C.ar   98  TYR98       0.1957
     73  OH        60.0450   42.3490   48.5820 O.3    98  TYR98      -0.2866
     74  N         77.2660   52.5120   52.8340 N.3   258  TYR258     -0.1241
     75  CA        77.7680   51.1910   53.2490 C.3   258  TYR258      0.1605
     76  C         79.1110   50.9910   52.5260 C.2   258  TYR258      0.2264
     77  O         79.4430   51.7780   51.6280 O.2   258  TYR258     -0.2867
     78  CB        76.8120   50.0470   52.8330 C.3   258  TYR258      0.0534
     79  CG        76.5470   49.9820   51.3350 C.ar  258  TYR258     -0.0201
     80  CD1       75.5480   50.7980   50.8070 C.ar  258  TYR258     -0.0009
     81  CD2       77.3080   49.1680   50.4870 C.ar  258  TYR258     -0.0009
     82  CE1       75.2980   50.8320   49.4310 C.ar  258  TYR258      0.0417
     83  CE2       77.0600   49.1910   49.1100 C.ar  258  TYR258      0.0417
     84  CZ        76.0570   50.0330   48.5930 C.ar  258  TYR258      0.1957
     85  OH        75.8170   50.1170   47.2430 O.3   258  TYR258     -0.2866
     86  N         81.8690   47.8900   50.6560 N.3   260  ARG260     -0.1245
     87  CA        82.1180   46.4980   50.2930 C.3   260  ARG260      0.1563
     88  C         83.5510   46.0000   50.6040 C.2   260  ARG260      0.2260
     89  O         84.5780   46.6030   50.2860 O.2   260  ARG260     -0.2867
     90  CB        81.8010   46.3040   48.8240 C.3   260  ARG260      0.0307
     91  CG        80.3140   46.2330   48.6060 C.3   260  ARG260      0.0489
     92  CD        80.1080   45.7060   47.2190 C.3   260  ARG260      0.2205
     93  NE        78.7520   45.9420   46.7970 N.pl3 260  ARG260     -0.0865
     94  CZ        77.7550   45.0760   47.0090 C.cat 260  ARG260      0.5346
     95  NH1       77.9690   43.9190   47.6230 N.pl3 260  ARG260      0.1354
     96  NH2       76.5090   45.4100   46.6720 N.pl3 260  ARG260      0.1354
     97  N         75.0580   43.4720   58.1460 N.3   280  TRP280     -0.1227
     98  CA        73.7710   42.8300   57.9830 C.3   280  TRP280      0.1737
     99  C         73.8950   41.6790   56.9980 C.2   280  TRP280      0.2595
    100  O         73.1730   40.7020   57.1120 O.2   280  TRP280     -0.2718
    101  CB        72.7260   43.8410   57.4630 C.3   280  TRP280      0.0564
    102  CG        72.5910   45.0100   58.4320 C.ar  280  TRP280      0.0003
    103  CD1       73.1440   46.2330   58.1450 C.ar  280  TRP280      0.0946
    104  CD2       72.0410   44.9510   59.6900 C.ar  280  TRP280      0.0152
    105  NE1       72.9710   46.9390   59.2240 N.ar  280  TRP280     -0.2442
    106  CE2       72.3310   46.2260   60.1600 C.ar  280  TRP280      0.0810
    107  CE3       71.3710   44.0230   60.4840 C.ar  280  TRP280      0.0012
    108  CZ2       71.9570   46.5920   61.4420 C.ar  280  TRP280      0.0191
    109  CZ3       70.9960   44.3990   61.7740 C.ar  280  TRP280      0.0001
    110  CH2       71.2910   45.6790   62.2530 C.ar  280  TRP280      0.0015
    111  N         74.7500   41.7270   55.9900 N.am  281  GLU281     -0.1979
    112  CA        74.9010   40.6220   55.0750 C.3   281  GLU281      0.1602
    113  C         76.4170   40.4360   54.8860 C.2   281  GLU281      0.2287
    114  O         77.1990   41.2180   55.4130 O.2   281  GLU281     -0.2864
    115  CB        74.1570   40.9720   53.7820 C.3   281  GLU281      0.0415
    116  CG        74.6040   42.2080   53.0120 C.3   281  GLU281      0.1163
    117  CD        73.5620   42.7650   52.0250 C.2   281  GLU281      0.3649
    118  OE1       72.8930   43.7370   52.3940 O.co2 281  GLU281     -0.2457
    119  OE2       73.4220   42.2490   50.9040 O.co2 281  GLU281     -0.2457
    120  N         79.3800   43.3770   53.1840 N.3   284  VAL284     -0.1245
    121  CA        78.7760   44.7010   53.1300 C.3   284  VAL284      0.1561
    122  C         78.7530   45.2380   54.5680 C.2   284  VAL284      0.2260
    123  O         78.2120   44.6040   55.4810 O.2   284  VAL284     -0.2867
    124  CB        77.3260   44.5860   52.4980 C.3   284  VAL284      0.0252
    125  CG1       76.6710   45.9550   52.4790 C.3   284  VAL284      0.0019
    126  CG2       77.3630   44.1540   51.0400 C.3   284  VAL284      0.0019
    127  N         72.0620   55.5630   49.2170 N.3   343  TRP343     -0.1227
    128  CA        71.5210   54.2420   49.5690 C.3   343  TRP343      0.1737
    129  C         72.4290   53.7380   50.7040 C.2   343  TRP343      0.2595
    130  O         73.6250   53.4940   50.4810 O.2   343  TRP343     -0.2718
    131  CB        71.6140   53.2330   48.3920 C.3   343  TRP343      0.0564
    132  CG        71.0480   51.8550   48.7590 C.ar  343  TRP343      0.0003
    133  CD1       71.7490   50.9030   49.4620 C.ar  343  TRP343      0.0946
    134  CD2       69.7760   51.4430   48.5090 C.ar  343  TRP343      0.0152
    135  NE1       70.9250   49.9150   49.6760 N.ar  343  TRP343     -0.2442
    136  CE2       69.7460   50.1840   49.1310 C.ar  343  TRP343      0.0810
    137  CE3       68.6510   51.9440   47.8540 C.ar  343  TRP343      0.0012
    138  CZ2       68.5910   49.4120   49.1110 C.ar  343  TRP343      0.0191
    139  CZ3       67.4910   51.1590   47.8340 C.ar  343  TRP343      0.0001
    140  CH2       67.4660   49.9110   48.4570 C.ar  343  TRP343      0.0015
    141  N         71.8910   53.6100   51.9230 N.am  344  GLU344     -0.1979
    142  CA        70.5070   53.9340   52.2270 C.3   344  GLU344      0.1602
    143  C         70.4770   54.5640   53.6170 C.2   344  GLU344      0.2287
    144  O         71.3990   54.3150   54.4070 O.2   344  GLU344     -0.2864
    145  CB        69.6280   52.6540   52.1740 C.3   344  GLU344      0.0415
    146  CG        70.0200   51.3680   52.9120 C.3   344  GLU344      0.1163
    147  CD        69.8910   51.3450   54.4460 C.2   344  GLU344      0.3649
    148  OE1       68.9910   51.9940   54.9800 O.co2 344  GLU344     -0.2457
    149  OE2       70.6680   50.6680   55.1270 O.co2 344  GLU344     -0.2457
@<TRIPOS>BOND
     1    54    53   ar
     2    54    52   ar
     3    53    51   ar
     4    52    50   ar
     5    65    64    2
     6    51    48   ar
     7    64    63    1
     8    50    48   ar
     9    50    49   ar
    10    48    46   ar
    11    44    43    2
    12    40    39    2
    13    49    47   ar
    14    63    66    1
    15    63    62    1
    16    37    38    1
    17    42    43    1
    18    42    41    1
    19    42    45    1
    20    46    47   ar
    21    46    45    1
    22    43    55   am
    23    39    41   am
    24    39    38    1
    25    66    67    1
    26    62    57   am
    27    58    57    2
    28    57    56    1
    29    55    56    1
    30    56    59    1
    31    67    69   ar
    32    67    68   ar
    33    69    71   ar
    34    34    32   ar
    35    34    36   ar
    36    68    70   ar
    37    32    31   ar
    38    36    35   ar
    39    59    60    1
    40    59    61    1
    41    71    72   ar
    42    31    33   ar
    43    31    30    1
    44    35    33   ar
    45    96    94    1
    46    70    72   ar
    47    93    94    2
    48    93    92    1
    49    94    95    1
    50    30    27    1
    51    92    91    1
    52    85    84    1
    53    72    73    1
    54    28    27    1
    55    28    29    2
    56    27    26    1
    57   139   137   ar
    58   139   140   ar
    59   137   134   ar
    60   131   132    1
    61   131   128    1
    62   140   138   ar
    63   134   132   ar
    64   134   136   ar
    65    84    83   ar
    66    84    82   ar
    67    91    90    1
    68   132   133   ar
    69    90    87    1
    70    83    81   ar
    71   138   136   ar
    72   136   135   ar
    73   127   128    1
    74    82    80   ar
    75   133   135   ar
    76   128   129    1
    77    89    88    2
    78    87    88    1
    79    87    86    1
    80   130   129    2
    81    81    79   ar
    82    14    13   ar
    83    14    12   ar
    84   129   141   am
    85    80    79   ar
    86   119   117   ar
    87    13    11   ar
    88   126   124    1
    89    79    78    1
    90    77    76    2
    91    12    10   ar
    92   141   142    1
    93   117   118   ar
    94   117   116    1
    95   145   142    1
    96   145   146    1
    97   142   143    1
    98    11     8   ar
    99   125   124    1
   100   124   121    1
   101    76    75    1
   102    78    75    1
   103    74    75    1
   104   146   147    1
   105    10     8   ar
   106    10     9   ar
   107   116   115    1
   108   121   120    1
   109   121   122    1
   110     8     6   ar
   111   143   144    2
   112   115   112    1
   113     9     7   ar
   114   147   148   ar
   115   147   149   ar
   116   122   123    2
   117     6     7   ar
   118     6     5    1
   119   113   112    1
   120   113   114    2
   121   112   111    1
   122     1     2    1
   123     5     2    1
   124    25    23    1
   125   111    99   am
   126     2     3    1
   127    23    22    2
   128    23    24    1
   129    99   100    2
   130    99    98    1
   131    22    21    1
   132     3     4    2
   133   101    98    1
   134   101   102    1
   135    98    97    1
   136    21    20    1
   137   103   102   ar
   138   103   105   ar
   139   102   104   ar
   140   105   106   ar
   141    20    19    1
   142   104   106   ar
   143   104   107   ar
   144   106   108   ar
   145    19    16    1
   146   107   109   ar
   147   108   110   ar
   148   109   110   ar
   149    15    16    1
   150    16    17    1
   151    17    18    2
