@<TRIPOS>MOLECULE
tmp/1ll5A00.pdb
 129 120 0 0 0
SMALL
GASTEIGER

@<TRIPOS>ATOM
      1  N         26.4510    1.5300   16.2550 N.3    61  SER61      -0.1217
      2  CA        27.7630    2.1150   16.5600 C.3    61  SER61       0.1889
      3  C         28.7370    1.2000   17.2850 C.2    61  SER61       0.2288
      4  O         29.9370    1.5030   17.3290 O.2    61  SER61      -0.2866
      5  CB        27.6210    3.4100   17.3450 C.3    61  SER61       0.2089
      6  OG        26.3050    4.0630   16.9320 O.3    61  SER61      -0.2183
      7  N         31.9460    0.0550   15.6990 N.3    64  LYS64      -0.1245
      8  CA        33.2480    0.7620   15.7340 C.3    64  LYS64       0.1561
      9  C         34.3210    0.0240   16.4940 C.2    64  LYS64       0.2260
     10  O         35.5320    0.2630   16.2570 O.2    64  LYS64      -0.2867
     11  CB        33.1220    2.1670   16.3050 C.3    64  LYS64       0.0271
     12  CG        32.2460    3.1110   15.4420 C.3    64  LYS64       0.0035
     13  CD        32.1930    4.5160   16.1000 C.3    64  LYS64       0.0206
     14  CE        31.4630    5.5430   15.2410 C.3    64  LYS64       0.1093
     15  NZ        30.0840    5.0270   14.9730 N.3    64  LYS64      -0.1314
     16  N         29.1240   14.1250   12.3310 N.3   116  LEU116     -0.1231
     17  CA        28.6110   12.8540   12.8610 C.3   116  LEU116      0.1693
     18  C         28.2690   11.8680   11.7500 C.2   116  LEU116      0.2591
     19  O         28.6000   10.6710   11.8280 O.2   116  LEU116     -0.2718
     20  CB        27.3670   13.0790   13.7340 C.3   116  LEU116      0.0284
     21  CG        26.6550   11.8420   14.3130 C.3   116  LEU116      0.0019
     22  CD1       27.6570   11.0590   15.1830 C.3   116  LEU116      0.0001
     23  CD2       25.4140   12.2320   15.1660 C.3   116  LEU116      0.0001
     24  N         27.6350   12.3750   10.6890 N.am  117  GLN117     -0.1979
     25  CA        27.2000   11.5300    9.5810 C.3   117  GLN117      0.1601
     26  C         27.7150   12.0010    8.2240 C.2   117  GLN117      0.2287
     27  O         27.8700   13.2120    7.9690 O.2   117  GLN117     -0.2864
     28  CB        25.6520   11.5290    9.5280 C.3   117  GLN117      0.0394
     29  CG        24.9580   11.2310   10.8720 C.3   117  GLN117      0.0908
     30  CD        23.8350   12.2250   11.2440 C.2   117  GLN117      0.2608
     31  OE1       24.0540   13.4510   11.3650 O.2   117  GLN117     -0.2717
     32  NE2       22.6250   11.6920   11.4430 N.am  117  GLN117     -0.0878
     33  N         32.3400   13.0480   18.3730 N.3   147  TYR147     -0.1241
     34  CA        32.0350   11.7030   17.9320 C.3   147  TYR147      0.1605
     35  C         31.5470   11.8260   16.5060 C.2   147  TYR147      0.2264
     36  O         30.6700   12.6360   16.2310 O.2   147  TYR147     -0.2867
     37  CB        30.9560   11.1190   18.8370 C.3   147  TYR147      0.0534
     38  CG        30.6410    9.6810   18.5720 C.ar  147  TYR147     -0.0201
     39  CD1       29.4140    9.3320   18.0000 C.ar  147  TYR147     -0.0009
     40  CD2       31.5280    8.6560   18.9160 C.ar  147  TYR147     -0.0009
     41  CE1       29.0720    8.0210   17.7750 C.ar  147  TYR147      0.0417
     42  CE2       31.1910    7.3150   18.6960 C.ar  147  TYR147      0.0417
     43  CZ        29.9600    7.0150   18.1210 C.ar  147  TYR147      0.1957
     44  OH        29.6240    5.7220   17.8740 O.3   147  TYR147     -0.2866
     45  N         30.8660    9.5530   12.6350 N.3   149  ASN149     -0.1240
     46  CA        30.9630    8.3760   11.7940 C.3   149  ASN149      0.1653
     47  C         31.8730    8.6640   10.6120 C.2   149  ASN149      0.2266
     48  O         32.5110    7.7660   10.0950 O.2   149  ASN149     -0.2867
     49  CB        29.5810    7.9620   11.2310 C.3   149  ASN149      0.1155
     50  CG        28.6880    7.3480   12.2580 C.2   149  ASN149      0.2627
     51  OD1       29.1470    6.9410   13.3100 O.2   149  ASN149     -0.2716
     52  ND2       27.3720    7.2440   11.9420 N.am  149  ASN149     -0.0877
     53  N         10.8340    0.8100   14.8480 N.3   201  ARG201     -0.1245
     54  CA        10.8850    2.2500   15.0410 C.3   201  ARG201      0.1563
     55  C          9.4530    2.7220   14.8860 C.2   201  ARG201      0.2260
     56  O          8.8600    2.5450   13.8240 O.2   201  ARG201     -0.2867
     57  CB        11.7700    2.8680   13.9580 C.3   201  ARG201      0.0307
     58  CG        11.9360    4.3840   14.0350 C.3   201  ARG201      0.0489
     59  CD        12.7270    4.8670   12.8320 C.3   201  ARG201      0.2205
     60  NE        12.9760    6.3110   12.8650 N.pl3 201  ARG201     -0.0865
     61  CZ        12.0760    7.2530   12.5670 C.cat 201  ARG201      0.5346
     62  NH1       10.8370    6.9180   12.2020 N.pl3 201  ARG201      0.1354
     63  NH2       12.4240    8.5410   12.6280 N.pl3 201  ARG201      0.1354
     64  N         28.8980    1.6820   11.4120 N.3   218  TYR218     -0.1241
     65  CA        27.7090    1.1700   12.0760 C.3   218  TYR218      0.1605
     66  C         27.0490   -0.0330   11.3990 C.2   218  TYR218      0.2264
     67  O         25.9290   -0.3910   11.7530 O.2   218  TYR218     -0.2867
     68  CB        26.6910    2.2930   12.1640 C.3   218  TYR218      0.0534
     69  CG        26.3320    2.9000   10.8010 C.ar  218  TYR218     -0.0201
     70  CD1       25.3380    2.3190    9.9770 C.ar  218  TYR218     -0.0009
     71  CD2       26.9660    4.0550   10.3560 C.ar  218  TYR218     -0.0009
     72  CE1       24.9890    2.8910    8.7320 C.ar  218  TYR218      0.0417
     73  CE2       26.6380    4.6380    9.1170 C.ar  218  TYR218      0.0417
     74  CZ        25.6420    4.0450    8.3170 C.ar  218  TYR218      0.1957
     75  OH        25.3400    4.6780    7.1310 O.3   218  TYR218     -0.2866
     76  N         28.4650    2.0430   23.2250 N.3   306  THR306     -0.1203
     77  CA        27.0070    1.9990   23.0560 C.3   306  THR306      0.1994
     78  C         26.7260    2.1230   21.5610 C.2   306  THR306      0.2618
     79  O         27.5750    2.5710   20.8240 O.2   306  THR306     -0.2717
     80  CB        26.3400    3.1460   23.7920 C.3   306  THR306      0.1784
     81  OG1       24.9100    2.9360   23.7720 O.3   306  THR306     -0.2211
     82  CG2       26.6750    4.4970   23.1050 C.3   306  THR306      0.0376
     83  N         25.5450    1.7300   21.0760 N.am  307  GLY307     -0.1942
     84  CA        25.3810    1.8780   19.6290 C.3   307  GLY307      0.2014
     85  C         23.9340    1.6830   19.2760 C.2   307  GLY307      0.2639
     86  O         23.2210    1.0130   20.0200 O.2   307  GLY307     -0.2714
     87  N         23.4970    2.3000   18.1800 N.am  308  ALA308     -0.1963
     88  CA        22.1130    2.1580   17.7900 C.3   308  ALA308      0.1728
     89  C         21.9490    2.3610   16.3310 C.2   308  ALA308      0.2617
     90  O         22.8330    2.8560   15.6470 O.2   308  ALA308     -0.2715
     91  CB        21.2400    3.1890   18.5220 C.3   308  ALA308      0.0334
     92  N         20.7950    1.9110   15.8430 N.am  309  THR309     -0.1937
     93  CA        20.4190    2.1730   14.4520 C.3   309  THR309      0.2028
     94  C         18.9850    2.6460   14.6150 C.2   309  THR309      0.2642
     95  O         18.4410    2.7040   15.7210 O.2   309  THR309     -0.2714
     96  CB        20.4640    0.9040   13.5170 C.3   309  THR309      0.1808
     97  OG1       19.5870   -0.1040   14.0340 O.3   309  THR309     -0.2208
     98  CG2       21.9240    0.3330   13.4260 C.3   309  THR309      0.0379
     99  N         18.3270    2.9700   13.5190 N.am  310  GLY310     -0.1954
    100  CA        16.9850    3.4530   13.7070 C.3   310  GLY310      0.1869
    101  C         16.1130    2.4570   14.4350 C.2   310  GLY310      0.2309
    102  O         15.1830    2.8600   15.1570 O.2   310  GLY310     -0.2863
    103  N         15.5610    0.9700   19.4690 N.3   333  ASN333     -0.1240
    104  CA        16.5560    1.9450   19.9390 C.3   333  ASN333      0.1653
    105  C         15.9190    2.7070   21.1050 C.2   333  ASN333      0.2266
    106  O         15.0610    3.5740   20.8830 O.2   333  ASN333     -0.2867
    107  CB        16.9160    2.8870   18.7930 C.3   333  ASN333      0.1155
    108  CG        17.8640    4.0320   19.2010 C.2   333  ASN333      0.2627
    109  OD1       18.3770    4.0920   20.3380 O.2   333  ASN333     -0.2716
    110  ND2       18.1080    4.9440   18.2490 N.am  333  ASN333     -0.0877
    111  N         20.1050    5.6180   25.8530 N.3   336  ASN336     -0.1240
    112  CA        21.3990    5.1800   26.3050 C.3   336  ASN336      0.1653
    113  C         21.5410    5.1190   27.8380 C.2   336  ASN336      0.2266
    114  O         22.1510    4.1600   28.3540 O.2   336  ASN336     -0.2867
    115  CB        22.4800    6.0780   25.7270 C.3   336  ASN336      0.1155
    116  CG        23.8420    5.7630   26.2900 C.2   336  ASN336      0.2627
    117  OD1       24.4120    4.7010   26.0230 O.2   336  ASN336     -0.2716
    118  ND2       24.3720    6.6760   27.0900 N.am  336  ASN336     -0.0877
    119  N         20.3730    1.9030   29.1220 N.3   339  ARG339     -0.1245
    120  CA        21.2430    0.7640   28.7980 C.3   339  ARG339      0.1563
    121  C         22.3710    0.7070   29.8240 C.2   339  ARG339      0.2260
    122  O         22.6170   -0.3380   30.4140 O.2   339  ARG339     -0.2867
    123  CB        21.8640    0.8940   27.3930 C.3   339  ARG339      0.0307
    124  CG        20.8570    1.2190   26.2970 C.3   339  ARG339      0.0489
    125  CD        21.5580    1.3960   24.9440 C.3   339  ARG339      0.2205
    126  NE        20.7270    2.1230   23.9780 N.pl3 339  ARG339     -0.0865
    127  CZ        21.2110    2.6610   22.8630 C.cat 339  ARG339      0.5346
    128  NH1       22.5040    2.5570   22.5840 N.pl3 339  ARG339      0.1354
    129  NH2       20.4210    3.3090   22.0290 N.pl3 339  ARG339      0.1354
@<TRIPOS>BOND
     1    75    74    1
     2    27    26    2
     3    26    25    1
     4    74    72   ar
     5    74    73   ar
     6    72    70   ar
     7    73    71   ar
     8    28    25    1
     9    28    29    1
    10    25    24    1
    11    70    69   ar
    12    48    47    2
    13    71    69   ar
    14    47    46    1
    15    24    18   am
    16    69    68    1
    17    29    30    1
    18    49    46    1
    19    49    50    1
    20    30    31    2
    21    30    32   am
    22    66    67    2
    23    66    65    1
    24    64    65    1
    25    18    19    2
    26    18    17    1
    27    46    45    1
    28    52    50   am
    29    65    68    1
    30    62    61    1
    31    50    51    2
    32    16    17    1
    33    61    63    1
    34    61    60    2
    35    59    60    1
    36    59    58    1
    37    17    20    1
    38    98    96    1
    39    96    97    1
    40    96    93    1
    41    99   100    1
    42    99    94   am
    43   100   101    1
    44    20    21    1
    45    56    55    2
    46    57    58    1
    47    57    54    1
    48    21    23    1
    49    21    22    1
    50   101   102    2
    51    93    94    1
    52    93    92    1
    53    94    95    2
    54    53    54    1
    55    55    54    1
    56    15    14    1
    57    14    13    1
    58    12    13    1
    59    12    11    1
    60    90    89    2
    61     7     8    1
    62     8    11    1
    63     8     9    1
    64    92    89   am
    65    36    35    2
    66     1     2    1
    67    10     9    2
    68    89    88    1
    69    35    34    1
    70     2     3    1
    71     2     5    1
    72     6     5    1
    73     3     4    2
    74    41    39   ar
    75    41    43   ar
    76    88    87    1
    77    88    91    1
    78    44    43    1
    79    34    33    1
    80    34    37    1
    81    39    38   ar
    82    43    42   ar
    83    87    85   am
    84   110   108   am
    85    38    37    1
    86    38    40   ar
    87    42    40   ar
    88   107   108    1
    89   107   104    1
    90   108   109    2
    91    85    84    1
    92    85    86    2
    93   103   104    1
    94    84    83    1
    95   104   105    1
    96    79    78    2
    97   106   105    2
    98    83    78   am
    99    78    77    1
   100   129   127    1
   101   128   127    1
   102   127   126    2
   103    77    76    1
   104    77    80    1
   105    82    80    1
   106    81    80    1
   107   126   125    1
   108   125   124    1
   109   115   116    1
   110   115   112    1
   111   111   112    1
   112   117   116    2
   113   116   118   am
   114   124   123    1
   115   112   113    1
   116   123   120    1
   117   113   114    2
   118   120   119    1
   119   120   121    1
   120   121   122    2
