@<TRIPOS>MOLECULE
tmp/1ll9B00.pdb
 125 115 0 0 0
SMALL
GASTEIGER

@<TRIPOS>ATOM
      1  N         76.4930    1.1600   29.6410 N.3    61  SER61      -0.1217
      2  CA        75.1960    1.7150   29.2220 C.3    61  SER61       0.1889
      3  C         74.2150    0.7130   28.6070 C.2    61  SER61       0.2288
      4  O         73.0280    1.0000   28.4370 O.2    61  SER61      -0.2866
      5  CB        75.3390    2.9900   28.3480 C.3    61  SER61       0.2089
      6  OG        76.1260    3.9920   29.0250 O.3    61  SER61      -0.2183
      7  N         75.0220   14.5100   30.7170 N.3   116  LEU116     -0.1231
      8  CA        75.5060   13.1760   30.3840 C.3   116  LEU116      0.1693
      9  C         75.8210   12.3900   31.6510 C.2   116  LEU116      0.2591
     10  O         75.4580   11.2180   31.7800 O.2   116  LEU116     -0.2718
     11  CB        76.7630   13.2780   29.5160 C.3   116  LEU116      0.0284
     12  CG        77.4800   11.9670   29.1770 C.3   116  LEU116      0.0019
     13  CD1       76.5300   11.0610   28.4080 C.3   116  LEU116      0.0001
     14  CD2       78.7330   12.2440   28.3570 C.3   116  LEU116      0.0001
     15  N         76.4980   13.0430   32.5880 N.am  117  GLN117     -0.1979
     16  CA        76.8520   12.3980   33.8430 C.3   117  GLN117      0.1601
     17  C         76.2990   13.1940   35.0200 C.2   117  GLN117      0.2287
     18  O         76.1530   14.4130   34.9470 O.2   117  GLN117     -0.2864
     19  CB        78.3750   12.3240   34.0110 C.3   117  GLN117      0.0394
     20  CG        79.1620   11.7160   32.8650 C.3   117  GLN117      0.0908
     21  CD        78.8530   10.2550   32.6410 C.2   117  GLN117      0.2608
     22  OE1       78.4690    9.5400   33.5660 O.2   117  GLN117     -0.2717
     23  NE2       79.0360    9.7940   31.4070 N.am  117  GLN117     -0.0878
     24  N         71.6500   12.4830   24.9640 N.3   147  TYR147     -0.1241
     25  CA        71.9800   11.2630   25.6880 C.3   147  TYR147      0.1605
     26  C         72.5000   11.5960   27.0790 C.2   147  TYR147      0.2264
     27  O         73.4140   12.4100   27.2250 O.2   147  TYR147     -0.2867
     28  CB        73.0170   10.4750   24.9010 C.3   147  TYR147      0.0534
     29  CG        73.3030    9.1250   25.4820 C.ar  147  TYR147     -0.0201
     30  CD1       74.4500    8.8970   26.2320 C.ar  147  TYR147     -0.0009
     31  CD2       72.4270    8.0620   25.2650 C.ar  147  TYR147     -0.0009
     32  CE1       74.7260    7.6360   26.7460 C.ar  147  TYR147      0.0417
     33  CE2       72.6890    6.8100   25.7710 C.ar  147  TYR147      0.0417
     34  CZ        73.8390    6.6000   26.5060 C.ar  147  TYR147      0.1957
     35  OH        74.1060    5.3440   26.9690 O.3   147  TYR147     -0.2866
     36  N         73.0030    9.9080   31.3530 N.3   149  ASN149     -0.1240
     37  CA        72.8210    8.9430   32.4270 C.3   149  ASN149      0.1653
     38  C         71.8730    9.5390   33.4570 C.2   149  ASN149      0.2266
     39  O         71.0910    8.8200   34.0780 O.2   149  ASN149     -0.2867
     40  CB        74.1510    8.6350   33.1250 C.3   149  ASN149      0.1155
     41  CG        75.0740    7.7780   32.2860 C.2   149  ASN149      0.2627
     42  OD1       74.6580    6.7720   31.7150 O.2   149  ASN149     -0.2716
     43  ND2       76.3410    8.1650   32.2230 N.am  149  ASN149     -0.0877
     44  N         92.2310   -0.6120   31.7300 N.3   201  ARG201     -0.1245
     45  CA        92.3630    0.7640   31.2860 C.3   201  ARG201      0.1563
     46  C         93.7970    1.1820   31.5940 C.2   201  ARG201      0.2260
     47  O         94.2620    1.0290   32.7240 O.2   201  ARG201     -0.2867
     48  CB        91.3850    1.6450   32.0600 C.3   201  ARG201      0.0307
     49  CG        91.3310    3.0950   31.6100 C.3   201  ARG201      0.0489
     50  CD        90.3060    3.8510   32.4360 C.3   201  ARG201      0.2205
     51  NE        89.9960    5.1610   31.8750 N.pl3 201  ARG201     -0.0865
     52  CZ        90.8370    6.1890   31.8480 C.cat 201  ARG201      0.5346
     53  NH1       92.0580    6.0690   32.3550 N.pl3 201  ARG201      0.1354
     54  NH2       90.4550    7.3400   31.3090 N.pl3 201  ARG201      0.1354
     55  N         84.1060   -0.9710   37.6690 N.3   208  VAL208     -0.1245
     56  CA        83.3340    0.2660   37.7030 C.3   208  VAL208      0.1561
     57  C         83.2330    0.8220   39.1200 C.2   208  VAL208      0.2260
     58  O         83.0600    0.0760   40.0790 O.2   208  VAL208     -0.2867
     59  CB        81.9080    0.0600   37.1340 C.3   208  VAL208      0.0252
     60  CG1       81.1210   -0.9070   38.0050 C.3   208  VAL208      0.0019
     61  CG2       81.1950    1.4010   37.0340 C.3   208  VAL208      0.0019
     62  N         74.0490    2.2890   34.4250 N.3   218  TYR218     -0.1241
     63  CA        75.1450    1.4620   33.9250 C.3   218  TYR218      0.1605
     64  C         75.6510    0.4130   34.9140 C.2   218  TYR218      0.2264
     65  O         76.8110    0.0050   34.8470 O.2   218  TYR218     -0.2867
     66  CB        76.3040    2.3840   33.5280 C.3   218  TYR218      0.0534
     67  CG        76.7770    3.2920   34.6530 C.ar  218  TYR218     -0.0201
     68  CD1       77.6750    2.8370   35.6170 C.ar  218  TYR218     -0.0009
     69  CD2       76.3200    4.6070   34.7530 C.ar  218  TYR218     -0.0009
     70  CE1       78.1100    3.6720   36.6510 C.ar  218  TYR218      0.0417
     71  CE2       76.7420    5.4460   35.7830 C.ar  218  TYR218      0.0417
     72  CZ        77.6390    4.9720   36.7260 C.ar  218  TYR218      0.1957
     73  OH        78.0640    5.8060   37.7390 O.3   218  TYR218     -0.2866
     74  N         81.0020    8.8260   19.4470 N.3   286  ASN286     -0.1240
     75  CA        80.5630    9.7370   20.4940 C.3   286  ASN286      0.1653
     76  C         80.3790   11.1780   20.0410 C.2   286  ASN286      0.2266
     77  O         79.6240   11.9290   20.6590 O.2   286  ASN286     -0.2867
     78  CB        81.5250    9.6630   21.6820 C.3   286  ASN286      0.1155
     79  CG        81.4240    8.3420   22.4220 C.2   286  ASN286      0.2627
     80  OD1       82.3230    7.9640   23.1650 O.2   286  ASN286     -0.2716
     81  ND2       80.3130    7.6360   22.2260 N.am  286  ASN286     -0.0877
     82  N         76.6160   11.5120   21.3710 N.3   290  LEU290     -0.1245
     83  CA        76.4640   12.3190   22.5780 C.3   290  LEU290      0.1561
     84  C         76.0490   13.7590   22.2860 C.2   290  LEU290      0.2260
     85  O         75.8920   14.5610   23.2070 O.2   290  LEU290     -0.2867
     86  CB        77.7720   12.3180   23.3790 C.3   290  LEU290      0.0270
     87  CG        78.3120   10.9460   23.7820 C.3   290  LEU290      0.0019
     88  CD1       79.6320   11.1430   24.5070 C.3   290  LEU290      0.0001
     89  CD2       77.3040   10.2110   24.6610 C.3   290  LEU290      0.0001
     90  N         77.6240    0.2800   24.9650 N.3   314  GLY314     -0.1210
     91  CA        77.8210    0.5000   26.3850 C.3   314  GLY314      0.1956
     92  C         79.2870    0.4130   26.7320 C.2   314  GLY314      0.2612
     93  O         80.0520   -0.2850   26.0620 O.2   314  GLY314     -0.2717
     94  N         79.6880    1.1210   27.7790 N.am  315  ALA315     -0.1965
     95  CA        81.0780    1.0870   28.1890 C.3   315  ALA315      0.1728
     96  C         81.2520    1.5740   29.6150 C.2   315  ALA315      0.2617
     97  O         80.4120    2.2950   30.1410 O.2   315  ALA315     -0.2715
     98  CB        81.9170    1.9430   27.2470 C.3   315  ALA315      0.0334
     99  N         82.3310    1.1280   30.2430 N.am  316  THR316     -0.1937
    100  CA        82.6890    1.5680   31.5850 C.3   316  THR316      0.2028
    101  C         84.1660    1.8640   31.4230 C.2   316  THR316      0.2642
    102  O         84.6950    1.7610   30.3150 O.2   316  THR316     -0.2714
    103  CB        82.5030    0.4810   32.6740 C.3   316  THR316      0.1808
    104  OG1       83.2290   -0.6990   32.3140 O.3   316  THR316     -0.2208
    105  CG2       81.0260    0.1570   32.8680 C.3   316  THR316      0.0379
    106  N         84.8370    2.2400   32.5030 N.am  317  GLY317     -0.1954
    107  CA        86.2510    2.5360   32.3870 C.3   317  GLY317      0.1869
    108  C         87.0500    1.4310   31.7200 C.2   317  GLY317      0.2309
    109  O         87.8910    1.7000   30.8610 O.2   317  GLY317     -0.2863
    110  N         87.5830   -0.8180   26.9520 N.3   340  ASN340     -0.1240
    111  CA        86.7250    0.1570   26.2950 C.3   340  ASN340      0.1653
    112  C         87.3470    0.6570   24.9920 C.2   340  ASN340      0.2266
    113  O         88.1610    1.5800   25.0000 O.2   340  ASN340     -0.2867
    114  CB        86.4880    1.3380   27.2380 C.3   340  ASN340      0.1155
    115  CG        85.5770    2.3960   26.6460 C.2   340  ASN340      0.2627
    116  OD1       85.3950    3.4650   27.2320 O.2   340  ASN340     -0.2716
    117  ND2       84.9940    2.1060   25.4870 N.am  340  ASN340     -0.0877
    118  N         83.4800    2.7900   19.6530 N.3   343  ASN343     -0.1240
    119  CA        82.1880    2.2330   19.2600 C.3   343  ASN343      0.1653
    120  C         82.0900    1.8580   17.7850 C.2   343  ASN343      0.2266
    121  O         81.5310    0.8130   17.4470 O.2   343  ASN343     -0.2867
    122  CB        81.0520    3.2080   19.5830 C.3   343  ASN343      0.1155
    123  CG        80.8180    3.3600   21.0690 C.2   343  ASN343      0.2627
    124  OD1       80.8460    2.3820   21.8190 O.2   343  ASN343     -0.2716
    125  ND2       80.5640    4.5900   21.5030 N.am  343  ASN343     -0.0877
@<TRIPOS>BOND
     1   121   120    2
     2   120   119    1
     3   119   122    1
     4   119   118    1
     5    74    75    1
     6   122   123    1
     7    76    75    1
     8    76    77    2
     9    75    78    1
    10   123   125   am
    11   123   124    2
    12    82    83    1
    13    78    79    1
    14    81    79   am
    15    84    83    1
    16    84    85    2
    17    79    80    2
    18    83    86    1
    19    86    87    1
    20    87    88    1
    21    87    89    1
    22    28    29    1
    23    28    25    1
    24    24    25    1
    25    90    91    1
    26   112   113    2
    27   112   111    1
    28    31    29   ar
    29    31    33   ar
    30    29    30   ar
    31   117   115   am
    32    25    26    1
    33    33    34   ar
    34    93    92    2
    35    30    32   ar
    36   111   110    1
    37   111   114    1
    38    91    92    1
    39    34    32   ar
    40    34    35    1
    41   115   116    2
    42   115   114    1
    43    92    94   am
    44    26    27    2
    45    98    95    1
    46    94    95    1
    47    95    96    1
    48     5     6    1
    49     5     2    1
    50    14    12    1
    51    13    12    1
    52     4     3    2
    53     3     2    1
    54    12    11    1
    55     2     1    1
    56    11     8    1
    57    96    97    2
    58    96    99   am
    59    99   100    1
    60   102   101    2
    61     8     7    1
    62     8     9    1
    63   109   108    2
    64    45    46    1
    65    45    44    1
    66    45    48    1
    67    54    52    1
    68    36    37    1
    69    23    21   am
    70   101   100    1
    71   101   106   am
    72   100   103    1
    73    46    47    2
    74    49    48    1
    75    49    50    1
    76     9    10    2
    77     9    15   am
    78    42    41    2
    79   108   107    1
    80    52    51    2
    81    52    53    1
    82    51    50    1
    83    43    41   am
    84    41    40    1
    85   104   103    1
    86   107   106    1
    87    37    40    1
    88    37    38    1
    89    15    16    1
    90    21    20    1
    91    21    22    2
    92   103   105    1
    93    20    19    1
    94    38    39    2
    95    66    63    1
    96    66    67    1
    97    16    19    1
    98    16    17    1
    99    63    62    1
   100    63    64    1
   101    67    69   ar
   102    67    68   ar
   103    69    71   ar
   104    65    64    2
   105    18    17    2
   106    68    70   ar
   107    71    72   ar
   108    70    72   ar
   109    72    73    1
   110    61    59    1
   111    59    56    1
   112    59    60    1
   113    55    56    1
   114    56    57    1
   115    57    58    2
