@<TRIPOS>MOLECULE
tmp/1llbB00.pdb
 161 151 0 0 0
SMALL
GASTEIGER

@<TRIPOS>ATOM
      1  N         78.4140   -1.6500   31.4250 N.3    60  GLY60      -0.1210
      2  CA        78.4230   -0.2150   31.2050 C.3    60  GLY60       0.1956
      3  C         77.0100    0.2210   30.7780 C.2    60  GLY60       0.2612
      4  O         76.0000   -0.3050   31.2870 O.2    60  GLY60      -0.2717
      5  N         76.9290    1.1420   29.8210 N.am   61  SER61      -0.1952
      6  CA        75.6320    1.6550   29.3670 C.3    61  SER61       0.1924
      7  C         74.6670    0.6690   28.7200 C.2    61  SER61       0.2314
      8  O         73.5170    1.0100   28.4700 O.2    61  SER61      -0.2863
      9  CB        75.7720    2.9490   28.5540 C.3    61  SER61       0.2116
     10  OG        76.2930    3.9900   29.3730 O.3    61  SER61      -0.2180
     11  N         71.3780    0.2260   30.4220 N.3    64  LYS64      -0.1245
     12  CA        70.1570    1.0020   30.1790 C.3    64  LYS64       0.1561
     13  C         69.0800    0.1680   29.4780 C.2    64  LYS64       0.2260
     14  O         67.8760    0.5030   29.5680 O.2    64  LYS64      -0.2867
     15  CB        70.4710    2.2570   29.3550 C.3    64  LYS64       0.0271
     16  CG        71.3780    3.2720   30.0880 C.3    64  LYS64       0.0035
     17  CD        71.7820    4.4070   29.1550 C.3    64  LYS64       0.0206
     18  CE        72.4960    5.5540   29.9100 C.3    64  LYS64       0.1093
     19  NZ        73.8680    5.0890   30.1510 N.3    64  LYS64      -0.1314
     20  N         75.2140   14.4720   30.8360 N.3   116  LEU116     -0.1231
     21  CA        75.7460   13.1430   30.5600 C.3   116  LEU116      0.1693
     22  C         75.9950   12.3840   31.8500 C.2   116  LEU116      0.2591
     23  O         75.5430   11.2490   32.0180 O.2   116  LEU116     -0.2718
     24  CB        77.0570   13.2560   29.7660 C.3   116  LEU116      0.0284
     25  CG        77.7780   11.9470   29.4380 C.3   116  LEU116      0.0019
     26  CD1       76.7850   11.0000   28.7550 C.3   116  LEU116      0.0001
     27  CD2       78.9940   12.2060   28.5400 C.3   116  LEU116      0.0001
     28  N         76.7340   13.0040   32.7690 N.am  117  GLN117     -0.1979
     29  CA        77.0300   12.3490   34.0340 C.3   117  GLN117      0.1601
     30  C         76.4510   13.1460   35.2010 C.2   117  GLN117      0.2287
     31  O         76.3000   14.3700   35.1160 O.2   117  GLN117     -0.2864
     32  CB        78.5410   12.2920   34.2900 C.3   117  GLN117      0.0394
     33  CG        79.3990   11.7090   33.2100 C.3   117  GLN117      0.0908
     34  CD        79.2180   10.2270   33.0830 C.2   117  GLN117      0.2608
     35  OE1       78.5450    9.5930   33.9100 O.2   117  GLN117     -0.2717
     36  NE2       79.8210    9.6500   32.0480 N.am  117  GLN117     -0.0878
     37  N         71.9610   12.4500   25.0630 N.3   147  TYR147     -0.1241
     38  CA        72.2390   11.2040   25.7980 C.3   147  TYR147      0.1605
     39  C         72.7490   11.5230   27.1810 C.2   147  TYR147      0.2264
     40  O         73.6720   12.3280   27.3450 O.2   147  TYR147     -0.2867
     41  CB        73.2140   10.3440   24.9930 C.3   147  TYR147      0.0534
     42  CG        73.5050    9.0070   25.6130 C.ar  147  TYR147     -0.0201
     43  CD1       74.5590    8.8430   26.5010 C.ar  147  TYR147     -0.0009
     44  CD2       72.7250    7.8850   25.2900 C.ar  147  TYR147     -0.0009
     45  CE1       74.8550    7.5840   27.0500 C.ar  147  TYR147      0.0417
     46  CE2       73.0050    6.6460   25.8300 C.ar  147  TYR147      0.0417
     47  CZ        74.0780    6.5030   26.7020 C.ar  147  TYR147      0.1957
     48  OH        74.4160    5.2800   27.1740 O.3   147  TYR147     -0.2866
     49  N         73.2540    9.8510   31.4060 N.3   149  ASN149     -0.1240
     50  CA        73.0790    8.9310   32.5270 C.3   149  ASN149      0.1653
     51  C         72.1400    9.5490   33.5690 C.2   149  ASN149      0.2266
     52  O         71.3750    8.8400   34.2330 O.2   149  ASN149     -0.2867
     53  CB        74.4240    8.6480   33.2200 C.3   149  ASN149      0.1155
     54  CG        75.3650    7.8210   32.3680 C.2   149  ASN149      0.2627
     55  OD1       74.9440    7.1440   31.4250 O.2   149  ASN149     -0.2716
     56  ND2       76.6520    7.8520   32.7130 N.am  149  ASN149     -0.0877
     57  N         87.9060   -1.8220   38.1800 N.3   207  HIS207     -0.1226
     58  CA        86.5060   -2.1670   38.2330 C.3   207  HIS207      0.1752
     59  C         85.7750   -0.8290   38.3330 C.2   207  HIS207      0.2596
     60  O         86.3410    0.1790   38.8040 O.2   207  HIS207     -0.2718
     61  CB        86.2230   -3.0770   39.4350 C.3   207  HIS207      0.0759
     62  CG        86.4240   -4.5380   39.1440 C.ar  207  HIS207      0.0818
     63  ND1       86.6760   -5.4620   40.1330 N.ar  207  HIS207     -0.2268
     64  CD2       86.3930   -5.2320   37.9800 C.ar  207  HIS207      0.1154
     65  CE1       86.7920   -6.6640   39.5940 C.ar  207  HIS207      0.1986
     66  NE2       86.6220   -6.5530   38.2870 N.ar  207  HIS207     -0.2212
     67  N         84.5420   -0.7800   37.8460 N.am  208  VAL208     -0.1966
     68  CA        83.7910    0.4750   37.9120 C.3   208  VAL208      0.1727
     69  C         83.6560    0.9860   39.3620 C.2   208  VAL208      0.2616
     70  O         83.4400    0.2020   40.2830 O.2   208  VAL208     -0.2715
     71  CB        82.3740    0.3000   37.2940 C.3   208  VAL208      0.0290
     72  CG1       81.5720   -0.6770   38.1040 C.3   208  VAL208      0.0023
     73  CG2       81.6610    1.6430   37.2360 C.3   208  VAL208      0.0023
     74  N         83.7740    2.2940   39.5610 N.am  209  SER209     -0.1950
     75  CA        83.6510    2.8790   40.9030 C.3   209  SER209      0.1924
     76  C         82.1830    3.2090   41.1630 C.2   209  SER209      0.2314
     77  O         81.4400    3.4710   40.2260 O.2   209  SER209     -0.2863
     78  CB        84.4330    4.2020   41.0310 C.3   209  SER209      0.2116
     79  OG        85.7110    4.1810   40.4070 O.3   209  SER209     -0.2180
     80  N         74.5280    2.3710   34.3870 N.3   218  TYR218     -0.1241
     81  CA        75.6620    1.6490   33.8200 C.3   218  TYR218      0.1605
     82  C         76.2170    0.5870   34.7380 C.2   218  TYR218      0.2264
     83  O         77.3490    0.1260   34.5540 O.2   218  TYR218     -0.2867
     84  CB        76.7670    2.6610   33.4840 C.3   218  TYR218      0.0534
     85  CG        77.1750    3.5160   34.6740 C.ar  218  TYR218     -0.0201
     86  CD1       77.9900    3.0170   35.6630 C.ar  218  TYR218     -0.0009
     87  CD2       76.7210    4.8290   34.7970 C.ar  218  TYR218     -0.0009
     88  CE1       78.3600    3.8110   36.7640 C.ar  218  TYR218      0.0417
     89  CE2       77.0800    5.6350   35.8870 C.ar  218  TYR218      0.0417
     90  CZ        77.9080    5.1160   36.8630 C.ar  218  TYR218      0.1957
     91  OH        78.3130    5.9340   37.9160 O.3   218  TYR218     -0.2866
     92  N         81.4190    8.9820   19.6540 N.3   286  ASN286     -0.1240
     93  CA        80.8940    9.9030   20.6530 C.3   286  ASN286      0.1653
     94  C         80.6780   11.3480   20.2210 C.2   286  ASN286      0.2266
     95  O         79.8740   12.0640   20.8250 O.2   286  ASN286     -0.2867
     96  CB        81.7360    9.7980   21.9210 C.3   286  ASN286      0.1155
     97  CG        81.5080    8.4860   22.6140 C.2   286  ASN286      0.2627
     98  OD1       82.3290    8.0090   23.3850 O.2   286  ASN286     -0.2716
     99  ND2       80.3630    7.8840   22.3330 N.am  286  ASN286     -0.0877
    100  N         76.9440   11.5730   21.5600 N.3   290  LEU290     -0.1245
    101  CA        76.7720   12.4030   22.7560 C.3   290  LEU290      0.1561
    102  C         76.3440   13.8210   22.4660 C.2   290  LEU290      0.2260
    103  O         76.2110   14.6370   23.3950 O.2   290  LEU290     -0.2867
    104  CB        78.0700   12.4760   23.5390 C.3   290  LEU290      0.0270
    105  CG        78.6180   11.1390   23.9390 C.3   290  LEU290      0.0019
    106  CD1       79.8530   11.3840   24.7990 C.3   290  LEU290      0.0001
    107  CD2       77.5000   10.3410   24.6330 C.3   290  LEU290      0.0001
    108  N         75.3850    0.5180   22.6760 N.3   313  THR313     -0.1203
    109  CA        76.8060    0.4730   23.0210 C.3   313  THR313      0.1994
    110  C         76.9190    0.7390   24.5320 C.2   313  THR313      0.2618
    111  O         76.0200    1.3240   25.1630 O.2   313  THR313     -0.2717
    112  CB        77.6110    1.5820   22.3010 C.3   313  THR313      0.1784
    113  OG1       76.9720    2.8490   22.5180 O.3   313  THR313     -0.2211
    114  CG2       77.6910    1.3000   20.8290 C.3   313  THR313      0.0376
    115  N         78.0170    0.3010   25.1300 N.am  314  GLY314     -0.1942
    116  CA        78.1830    0.5380   26.5550 C.3   314  GLY314      0.2014
    117  C         79.6500    0.4230   26.9220 C.2   314  GLY314      0.2639
    118  O         80.3790   -0.3590   26.3270 O.2   314  GLY314     -0.2714
    119  N         80.0850    1.2120   27.8950 N.am  315  ALA315     -0.1963
    120  CA        81.4650    1.1460   28.3250 C.3   315  ALA315      0.1728
    121  C         81.6310    1.5950   29.7680 C.2   315  ALA315      0.2617
    122  O         80.7660    2.2690   30.3200 O.2   315  ALA315     -0.2715
    123  CB        82.3280    2.0340   27.4190 C.3   315  ALA315      0.0334
    124  N         82.7130    1.1550   30.3900 N.am  316  THR316     -0.1937
    125  CA        83.0830    1.6500   31.7250 C.3   316  THR316      0.2028
    126  C         84.5650    1.9720   31.5400 C.2   316  THR316      0.2642
    127  O         85.0730    1.8780   30.4260 O.2   316  THR316     -0.2714
    128  CB        82.9570    0.6170   32.8410 C.3   316  THR316      0.1808
    129  OG1       83.6990   -0.5560   32.4980 O.3   316  THR316     -0.2208
    130  CG2       81.5070    0.2800   33.1070 C.3   316  THR316      0.0379
    131  N         85.2640    2.3570   32.6060 N.am  317  GLY317     -0.1954
    132  CA        86.6820    2.6760   32.4550 C.3   317  GLY317      0.1869
    133  C         87.4830    1.5290   31.8540 C.2   317  GLY317      0.2309
    134  O         88.3890    1.7360   31.0340 O.2   317  GLY317     -0.2863
    135  N         87.9530   -0.7760   27.1020 N.3   340  ASN340     -0.1240
    136  CA        87.0590    0.2180   26.4950 C.3   340  ASN340      0.1653
    137  C         87.6480    0.7280   25.1770 C.2   340  ASN340      0.2266
    138  O         88.3450    1.7530   25.1530 O.2   340  ASN340     -0.2867
    139  CB        86.8820    1.4050   27.4450 C.3   340  ASN340      0.1155
    140  CG        86.0070    2.5130   26.8600 C.2   340  ASN340      0.2627
    141  OD1       85.8540    3.5760   27.4690 O.2   340  ASN340     -0.2716
    142  ND2       85.4310    2.2760   25.6900 N.am  340  ASN340     -0.0877
    143  N         83.8280    2.7650   19.9390 N.3   343  ASN343     -0.1240
    144  CA        82.5160    2.2840   19.5190 C.3   343  ASN343      0.1653
    145  C         82.4130    1.9400   18.0380 C.2   343  ASN343      0.2266
    146  O         81.8290    0.9250   17.6790 O.2   343  ASN343     -0.2867
    147  CB        81.4370    3.3240   19.8320 C.3   343  ASN343      0.1155
    148  CG        81.0680    3.3770   21.3100 C.2   343  ASN343      0.2627
    149  OD1       81.1490    2.3750   22.0320 O.2   343  ASN343     -0.2716
    150  ND2       80.6250    4.5490   21.7580 N.am  343  ASN343     -0.0877
    151  N         83.4330   -1.5010   17.2380 N.3   346  ARG346     -0.1245
    152  CA        82.4940   -2.5370   17.7020 C.3   346  ARG346      0.1563
    153  C         81.3690   -2.7110   16.7150 C.2   346  ARG346      0.2260
    154  O         81.0050   -3.8300   16.3570 O.2   346  ARG346     -0.2867
    155  CB        81.8520   -2.1620   19.0510 C.3   346  ARG346      0.0307
    156  CG        82.8230   -1.5730   20.0350 C.3   346  ARG346      0.0489
    157  CD        82.1970   -1.3230   21.3850 C.3   346  ARG346      0.2205
    158  NE        83.0740   -0.4900   22.2150 N.pl3 346  ARG346     -0.0865
    159  CZ        82.6900    0.0530   23.3610 C.cat 346  ARG346      0.5346
    160  NH1       81.4430   -0.1580   23.8060 N.pl3 346  ARG346      0.1354
    161  NH2       83.5390    0.8090   24.0550 N.pl3 346  ARG346      0.1354
@<TRIPOS>BOND
     1   154   153    2
     2   153   152    1
     3   151   152    1
     4   146   145    2
     5   152   155    1
     6   145   144    1
     7   155   156    1
     8   144   147    1
     9   144   143    1
    10    92    93    1
    11   147   148    1
    12   156   157    1
    13    94    93    1
    14    94    95    2
    15    93    96    1
    16   114   112    1
    17   148   150   am
    18   148   149    2
    19   157   158    1
    20   100   101    1
    21    96    97    1
    22   158   159    2
    23   112   113    1
    24   112   109    1
    25    99    97   am
    26   102   101    1
    27   102   103    2
    28    97    98    2
    29   108   109    1
    30   101   104    1
    31   109   110    1
    32   159   160    1
    33   159   161    1
    34   104   105    1
    35   105   107    1
    36   105   106    1
    37   110   115   am
    38   110   111    2
    39    41    42    1
    40    41    38    1
    41    37    38    1
    42   115   116    1
    43   138   137    2
    44   137   136    1
    45    44    42   ar
    46    44    46   ar
    47    42    43   ar
    48   142   140   am
    49    38    39    1
    50    46    47   ar
    51   118   117    2
    52   136   135    1
    53   136   139    1
    54    43    45   ar
    55   116   117    1
    56    47    45   ar
    57    47    48    1
    58   140   139    1
    59   140   141    2
    60   117   119   am
    61    39    40    2
    62   123   120    1
    63   119   120    1
    64   120   121    1
    65     8     7    2
    66    27    25    1
    67     9     6    1
    68     9    10    1
    69     7     6    1
    70    26    25    1
    71    17    18    1
    72    17    16    1
    73    15    16    1
    74    15    12    1
    75     6     5    1
    76    25    24    1
    77    13    14    2
    78    13    12    1
    79    24    21    1
    80   121   122    2
    81   121   124   am
    82     5     3   am
    83    18    19    1
    84    12    11    1
    85   124   125    1
    86   127   126    2
    87    21    20    1
    88    21    22    1
    89     3     2    1
    90     3     4    2
    91   134   133    2
    92     2     1    1
    93    49    50    1
    94    55    54    2
    95   126   125    1
    96   126   131   am
    97   125   128    1
    98    22    23    2
    99    22    28   am
   100   133   132    1
   101    36    34   am
   102    54    56   am
   103    54    53    1
   104   132   131    1
   105   129   128    1
   106    50    53    1
   107    50    51    1
   108    28    29    1
   109   128   130    1
   110    34    33    1
   111    34    35    2
   112    33    32    1
   113    84    81    1
   114    84    85    1
   115    51    52    2
   116    81    80    1
   117    81    82    1
   118    29    32    1
   119    29    30    1
   120    83    82    2
   121    85    87   ar
   122    85    86   ar
   123    87    89   ar
   124    31    30    2
   125    86    88   ar
   126    89    90   ar
   127    88    90   ar
   128    90    91    1
   129    73    71    1
   130    71    68    1
   131    71    72    1
   132    67    68    1
   133    67    59   am
   134    68    69    1
   135    64    66   ar
   136    64    62   ar
   137    57    58    1
   138    58    59    1
   139    58    61    1
   140    66    65   ar
   141    59    60    2
   142    62    61    1
   143    62    63   ar
   144    69    74   am
   145    69    70    2
   146    74    75    1
   147    65    63   ar
   148    77    76    2
   149    79    78    1
   150    75    78    1
   151    75    76    1
