@<TRIPOS>MOLECULE
tmp/1llcA00.pdb
 122 118 0 0 0
SMALL
GASTEIGER

@<TRIPOS>ATOM
      1  N         18.3620   13.6110    6.5280 N.3   151  SER151     -0.1217
      2  CA        17.2850   13.0180    5.7040 C.3   151  SER151      0.1889
      3  C         17.0120   13.7310    4.3820 C.2   151  SER151      0.2288
      4  O         17.0390   13.0880    3.3030 O.2   151  SER151     -0.2866
      5  CB        15.9680   12.9890    6.5060 C.3   151  SER151      0.2089
      6  OG        16.1300   12.2320    7.7120 O.3   151  SER151     -0.2183
      7  N         20.2260   13.9330    1.9590 N.3   154  THR154     -0.1203
      8  CA        20.6020   12.6810    1.2960 C.3   154  THR154      0.1994
      9  C         19.6350   12.2930    0.1870 C.2   154  THR154      0.2617
     10  O         20.0830   11.7580   -0.8550 O.2   154  THR154     -0.2717
     11  CB        20.7770   11.4750    2.2390 C.3   154  THR154      0.1784
     12  OG1       19.7560   10.4990    2.0010 O.3   154  THR154     -0.2211
     13  CG2       20.8070   11.8560    3.7260 C.3   154  THR154      0.0376
     14  N         18.3610   12.5320    0.4320 N.am  155  ALA155     -0.1979
     15  CA        17.2780   12.1940   -0.5040 C.3   155  ALA155      0.1597
     16  C         17.4250   12.9380   -1.8200 C.2   155  ALA155      0.2287
     17  O         17.0850   12.4080   -2.9090 O.2   155  ALA155     -0.2864
     18  CB        15.9210   12.5750    0.1130 C.3   155  ALA155      0.0319
     19  N         20.9750   11.5070   -3.5340 N.3   158  ARG158     -0.1245
     20  CA        20.5130   10.2530   -4.1410 C.3   158  ARG158      0.1563
     21  C         19.8980   10.4970   -5.5070 C.2   158  ARG158      0.2260
     22  O         20.3110    9.8550   -6.5010 O.2   158  ARG158     -0.2867
     23  CB        19.4130    9.6270   -3.2630 C.3   158  ARG158      0.0307
     24  CG        19.9620    8.8710   -2.0410 C.3   158  ARG158      0.0489
     25  CD        18.8330    8.5790   -1.0340 C.3   158  ARG158      0.2205
     26  NE        18.8390    7.1680   -0.6390 N.pl3 158  ARG158     -0.0865
     27  CZ        17.7390    6.5080   -0.3370 C.cat 158  ARG158      0.5346
     28  NH1       16.5750    7.1280   -0.3470 N.pl3 158  ARG158      0.1354
     29  NH2       17.8070    5.2360    0.0020 N.pl3 158  ARG158      0.1354
     30  N         15.8040    4.5670   -3.9260 N.3   170  ARG170     -0.1245
     31  CA        15.5130    3.2950   -3.2010 C.3   170  ARG170      0.1563
     32  C         16.4220    2.1250   -3.5850 C.2   170  ARG170      0.2260
     33  O         16.4600    1.1130   -2.8450 O.2   170  ARG170     -0.2867
     34  CB        14.0470    2.8020   -3.3380 C.3   170  ARG170      0.0307
     35  CG        13.0810    3.2920   -2.2460 C.3   170  ARG170      0.0489
     36  CD        13.0090    4.8220   -2.1700 C.3   170  ARG170      0.2205
     37  NE        11.8920    5.2420   -1.3220 N.pl3 170  ARG170     -0.0865
     38  CZ        11.8470    6.4280   -0.7620 C.cat 170  ARG170      0.5346
     39  NH1       10.7750    6.8040   -0.0960 N.pl3 170  ARG170      0.1354
     40  NH2       12.8410    7.2720   -0.9510 N.pl3 170  ARG170      0.1354
     41  N         20.1460    2.9130   -5.2490 N.3   172  VAL172     -0.1231
     42  CA        21.0160    4.0950   -5.0430 C.3   172  VAL172      0.1692
     43  C         21.2260    4.5490   -3.6020 C.2   172  VAL172      0.2592
     44  O         20.3280    5.1750   -2.9800 O.2   172  VAL172     -0.2718
     45  CB        20.4190    5.2800   -5.8240 C.3   172  VAL172      0.0266
     46  CG1       21.2690    6.5570   -5.6910 C.3   172  VAL172      0.0020
     47  CG2       20.1710    4.9340   -7.3000 C.3   172  VAL172      0.0020
     48  N         22.4060    4.2800   -3.1040 N.am  173  HIS173     -0.1962
     49  CA        22.8100    4.6550   -1.7530 C.3   173  HIS173      0.1787
     50  C         23.9520    5.6610   -1.7420 C.2   173  HIS173      0.2620
     51  O         24.9160    5.5180   -2.5370 O.2   173  HIS173     -0.2715
     52  CB        23.2910    3.4270   -0.9690 C.3   173  HIS173      0.0785
     53  CG        22.3180    2.2340   -1.0560 C.ar  173  HIS173      0.0821
     54  ND1       22.3590    1.3450   -2.1470 N.ar  173  HIS173     -0.2267
     55  CD2       21.3770    1.8340   -0.1900 C.ar  173  HIS173      0.1154
     56  CE1       21.3970    0.3410   -1.9150 C.ar  173  HIS173      0.1986
     57  NE2       20.7740    0.6640   -0.6920 N.ar  173  HIS173     -0.2212
     58  N         23.8990    6.4870   -0.7320 N.am  174  ALA174     -0.1963
     59  CA        24.8970    7.4760   -0.3250 C.3   174  ALA174      0.1728
     60  C         24.2690    8.4770    0.6250 C.2   174  ALA174      0.2616
     61  O         23.0340    8.7050    0.5790 O.2   174  ALA174     -0.2715
     62  CB        25.4850    8.2460   -1.5190 C.3   174  ALA174      0.0334
     63  N         25.0760    8.9610    1.5240 N.am  175  TYR175     -0.1974
     64  CA        24.5830    9.8640    2.5490 C.3   175  TYR175      0.1639
     65  C         25.1110   11.2770    2.4110 C.2   175  TYR175      0.2290
     66  O         26.1200   11.5440    1.7100 O.2   175  TYR175     -0.2864
     67  CB        24.9420    9.3680    3.9610 C.3   175  TYR175      0.0560
     68  CG        24.1710    8.0950    4.3320 C.ar  175  TYR175     -0.0198
     69  CD1       22.8280    8.1890    4.6070 C.ar  175  TYR175     -0.0009
     70  CD2       24.8040    6.8740    4.3800 C.ar  175  TYR175     -0.0009
     71  CE1       22.1010    7.0580    4.9320 C.ar  175  TYR175      0.0417
     72  CE2       24.0840    5.7310    4.7050 C.ar  175  TYR175      0.0417
     73  CZ        22.7340    5.8330    4.9780 C.ar  175  TYR175      0.1957
     74  OH        21.9790    4.6620    5.3050 O.3   175  TYR175     -0.2866
     75  N         31.4080    5.9750    0.6510 N.3   190  HIS190     -0.1241
     76  CA        30.3940    4.9170    0.6810 C.3   190  HIS190      0.1621
     77  C         29.8260    4.7220   -0.7190 C.2   190  HIS190      0.2264
     78  O         29.9650    3.6110   -1.2930 O.2   190  HIS190     -0.2867
     79  CB        29.2680    5.3110    1.6720 C.3   190  HIS190      0.0745
     80  CG        27.9840    4.4550    1.5900 C.ar  190  HIS190      0.0817
     81  ND1       26.7370    4.9920    1.9540 N.ar  190  HIS190     -0.2268
     82  CD2       27.7970    3.1850    1.1830 C.ar  190  HIS190      0.1154
     83  CE1       25.7560    4.0030    1.7410 C.ar  190  HIS190      0.1986
     84  NE2       26.4290    2.8690    1.2480 N.ar  190  HIS190     -0.2212
     85  N          8.4600    9.1760    6.3920 N.3   244  ARG244     -0.1245
     86  CA         9.3240    7.9740    6.3760 C.3   244  ARG244      0.1563
     87  C          9.8600    7.7650    7.7750 C.2   244  ARG244      0.2260
     88  O          9.7950    6.6440    8.3450 O.2   244  ARG244     -0.2867
     89  CB        10.5840    8.1990    5.5050 C.3   244  ARG244      0.0307
     90  CG        11.6790    7.1200    5.7380 C.3   244  ARG244      0.0489
     91  CD        11.5180    5.8930    4.8200 C.3   244  ARG244      0.2205
     92  NE        11.9560    4.6480    5.4720 N.pl3 244  ARG244     -0.0865
     93  CZ        11.0880    3.8250    6.0380 C.cat 244  ARG244      0.5346
     94  NH1        9.8170    4.1680    6.0950 N.pl3 244  ARG244      0.1354
     95  NH2       11.4620    2.6620    6.5400 N.pl3 244  ARG244      0.1354
     96  N         14.9720    0.4540   11.7370 N.3   255  ALA255     -0.1231
     97  CA        15.3050    1.0300   10.4300 C.3   255  ALA255      0.1694
     98  C         16.7240    1.5740   10.3350 C.2   255  ALA255      0.2592
     99  O         17.4310    1.6560   11.3670 O.2   255  ALA255     -0.2718
    100  CB        14.3410    2.2040   10.1760 C.3   255  ALA255      0.0304
    101  N         17.0400    2.1410    9.1930 N.am  256  VAL256     -0.1966
    102  CA        18.2510    2.9510    9.0070 C.3   256  VAL256      0.1727
    103  C         17.9620    4.2880    8.3360 C.2   256  VAL256      0.2616
    104  O         17.2960    4.3240    7.2680 O.2   256  VAL256     -0.2715
    105  CB        19.3460    2.1860    8.2360 C.3   256  VAL256      0.0290
    106  CG1       20.3010    3.1250    7.4780 C.3   256  VAL256      0.0023
    107  CG2       20.1390    1.2520    9.1680 C.3   256  VAL256      0.0023
    108  N         18.3450    5.3390    9.0390 N.am  257  LEU257     -0.1964
    109  CA        18.1430    6.7460    8.6720 C.3   257  LEU257      0.1716
    110  C         19.1340    7.6670    9.3750 C.2   257  LEU257      0.2495
    111  O         19.1620    7.7150   10.6300 O.2   257  LEU257     -0.2727
    112  CB        16.7530    7.1910    9.1540 C.3   257  LEU257      0.0311
    113  CG        15.5900    6.7700    8.2400 C.3   257  LEU257      0.0022
    114  CD1       14.2840    6.5910    9.0330 C.3   257  LEU257      0.0001
    115  CD2       15.4230    7.7300    7.0480 C.3   257  LEU257      0.0001
    116  N         19.6860    8.5660    8.6080 N.am  258  PRO258     -0.2504
    117  CA        20.3340    9.7760    9.1250 C.3   258  PRO258      0.1487
    118  C         19.3510   10.7720    9.7270 C.2   258  PRO258      0.2276
    119  O         18.3510   11.1530    9.0660 O.2   258  PRO258     -0.2865
    120  CB        20.9960   10.4600    7.9360 C.3   258  PRO258      0.0556
    121  CG        20.5450    9.7310    6.6720 C.2   258  PRO258     -0.0078
    122  CD        19.7190    8.5240    7.1360 C.2   258  PRO258      0.0634
@<TRIPOS>BOND
     1    47    45    1
     2    22    21    2
     3    45    46    1
     4    45    42    1
     5    21    20    1
     6    41    42    1
     7    42    43    1
     8    20    19    1
     9    20    23    1
    10    30    31    1
    11    43    48   am
    12    43    44    2
    13    32    31    1
    14    32    33    2
    15    34    31    1
    16    34    35    1
    17    23    24    1
    18    48    49    1
    19    17    16    2
    20    51    50    2
    21    35    36    1
    22    36    37    1
    23    54    56   ar
    24    54    53   ar
    25    24    25    1
    26    56    57   ar
    27    16    15    1
    28    49    50    1
    29    49    52    1
    30    50    58   am
    31    62    59    1
    32    37    38    2
    33    78    77    2
    34    53    52    1
    35    53    55   ar
    36    25    26    1
    37    40    38    1
    38    10     9    2
    39    38    39    1
    40    58    59    1
    41    77    76    1
    42    57    55   ar
    43    26    27    2
    44    15    18    1
    45    15    14    1
    46    28    27    1
    47    27    29    1
    48    59    60    1
    49     9    14   am
    50     9     8    1
    51    61    60    2
    52    60    63   am
    53    75    76    1
    54    76    79    1
    55    82    84   ar
    56    82    80   ar
    57    84    83   ar
    58     8     7    1
    59     8    11    1
    60    63    64    1
    61    80    79    1
    62    80    81   ar
    63    66    65    2
    64    83    81   ar
    65    12    11    1
    66    11    13    1
    67    65    64    1
    68    64    67    1
    69     4     3    2
    70    67    68    1
    71    68    70   ar
    72    68    69   ar
    73    70    72   ar
    74     3     2    1
    75    69    71   ar
    76    72    73   ar
    77    91    92    1
    78    91    90    1
    79    71    73   ar
    80    73    74    1
    81    92    93    2
    82    89    90    1
    83    89    86    1
    84     2     5    1
    85     2     1    1
    86    93    94    1
    87    93    95    1
    88    86    85    1
    89    86    87    1
    90     5     6    1
    91   121   122    2
    92   121   120    1
    93   115   113    1
    94   122   116    1
    95   104   103    2
    96   106   105    1
    97    87    88    2
    98   120   117    1
    99   105   102    1
   100   105   107    1
   101   113   114    1
   102   113   112    1
   103   103   102    1
   104   103   108   am
   105   116   117    1
   106   116   110   am
   107   109   108    1
   108   109   112    1
   109   109   110    1
   110   102   101    1
   111   119   118    2
   112   117   118    1
   113   101    98   am
   114   110   111    2
   115   100    97    1
   116    98    97    1
   117    98    99    2
   118    97    96    1
