@<TRIPOS>MOLECULE
tmp/1lloA01.pdb
 118 112 0 0 0
SMALL
GASTEIGER

@<TRIPOS>ATOM
      1  N         17.2230   34.3240   19.1060 N.3     6  TYR6       -0.1241
      2  CA        16.2280   35.1420   19.8010 C.3     6  TYR6        0.1605
      3  C         15.1670   35.4970   18.7820 C.2     6  TYR6        0.2264
      4  O         15.4590   35.8050   17.6150 O.2     6  TYR6       -0.2867
      5  CB        16.8460   36.4420   20.3530 C.3     6  TYR6        0.0534
      6  CG        17.5110   36.2440   21.6890 C.ar    6  TYR6       -0.0201
      7  CD1       18.8030   35.7120   21.7600 C.ar    6  TYR6       -0.0009
      8  CD2       16.8610   36.6140   22.8760 C.ar    6  TYR6       -0.0009
      9  CE1       19.4350   35.5540   23.0070 C.ar    6  TYR6        0.0417
     10  CE2       17.4590   36.4040   24.1110 C.ar    6  TYR6        0.0417
     11  CZ        18.7380   35.8960   24.1580 C.ar    6  TYR6        0.1957
     12  OH        19.3600   35.7370   25.3550 O.3     6  TYR6       -0.2866
     13  N         10.5360   40.2550   24.3170 N.3    32  PHE32      -0.1241
     14  CA        11.0320   40.2830   25.6950 C.3    32  PHE32       0.1605
     15  C          9.8710   40.5430   26.6520 C.2    32  PHE32       0.2264
     16  O          8.8640   41.1810   26.2990 O.2    32  PHE32      -0.2867
     17  CB        11.9230   41.5400   25.8700 C.3    32  PHE32       0.0534
     18  CG        13.3030   41.4320   25.2610 C.ar   32  PHE32      -0.0203
     19  CD1       14.2700   40.5450   25.8040 C.ar   32  PHE32      -0.0042
     20  CD2       13.6760   42.2820   24.1920 C.ar   32  PHE32      -0.0042
     21  CE1       15.5560   40.4480   25.2400 C.ar   32  PHE32      -0.0003
     22  CE2       14.9670   42.1870   23.6200 C.ar   32  PHE32      -0.0003
     23  CZ        15.9100   41.2700   24.1520 C.ar   32  PHE32      -0.0000
     24  N         17.5000   45.6110   25.7290 N.3    81  GLY81      -0.1210
     25  CA        18.1170   46.9290   25.6370 C.3    81  GLY81       0.1956
     26  C         17.1630   48.0500   26.0410 C.2    81  GLY81       0.2611
     27  O         17.5990   49.1030   26.5110 O.2    81  GLY81      -0.2717
     28  N         15.8710   47.8350   25.8150 N.am   82  ILE82      -0.1979
     29  CA        14.8490   48.8390   26.1060 C.3    82  ILE82       0.1595
     30  C         13.8630   48.3520   27.1540 C.2    82  ILE82       0.2287
     31  O         13.1630   47.3610   26.9550 O.2    82  ILE82      -0.2864
     32  CB        14.0250   49.2460   24.8150 C.3    82  ILE82       0.0276
     33  CG1       14.9470   49.7680   23.6810 C.3    82  ILE82       0.0022
     34  CG2       12.9760   50.3110   25.1660 C.3    82  ILE82       0.0022
     35  CD1       14.2580   49.9970   22.3510 C.3    82  ILE82       0.0001
     36  N         18.3720   38.7030   30.2850 N.3   125  ASP125     -0.1239
     37  CA        19.1130   39.6490   29.4390 C.3   125  ASP125      0.1674
     38  C         19.0210   41.0170   30.1420 C.2   125  ASP125      0.2266
     39  O         18.3330   41.9470   29.6820 O.2   125  ASP125     -0.2867
     40  CB        18.5380   39.6620   28.0110 C.3   125  ASP125      0.1410
     41  CG        19.2010   40.7230   27.1420 C.2   125  ASP125      0.3668
     42  OD1       20.3690   41.0270   27.4340 O.co2 125  ASP125     -0.2456
     43  OD2       18.6150   41.1530   26.1330 O.co2 125  ASP125     -0.2456
     44  N         20.4110   44.3790   31.1470 N.3   127  GLU127     -0.1245
     45  CA        21.4120   45.2790   30.5770 C.3   127  GLU127      0.1567
     46  C         21.5660   46.6330   31.2260 C.2   127  GLU127      0.2260
     47  O         22.5040   47.3540   30.9270 O.2   127  GLU127     -0.2867
     48  CB        21.1880   45.4430   29.0580 C.3   127  GLU127      0.0388
     49  CG        21.0730   44.0940   28.3760 C.3   127  GLU127      0.1160
     50  CD        21.2250   44.1540   26.8770 C.2   127  GLU127      0.3649
     51  OE1       21.4350   45.2430   26.3340 O.co2 127  GLU127     -0.2457
     52  OE2       21.1820   43.1080   26.2150 O.co2 127  GLU127     -0.2457
     53  N         22.2590   36.0290   29.1910 N.3   156  ALA156     -0.1245
     54  CA        22.9140   36.7020   28.0850 C.3   156  ALA156      0.1562
     55  C         23.7550   37.8800   28.5820 C.2   156  ALA156      0.2260
     56  O         23.4470   39.0120   28.2600 O.2   156  ALA156     -0.2867
     57  CB        21.8370   37.2100   27.0630 C.3   156  ALA156      0.0290
     58  N         27.3880   37.8200   25.0910 N.3   181  GLN181     -0.1245
     59  CA        27.2720   38.7140   23.9160 C.3   181  GLN181      0.1566
     60  C         28.6650   39.2660   23.5720 C.2   181  GLN181      0.2260
     61  O         29.1400   40.2070   24.2130 O.2   181  GLN181     -0.2867
     62  CB        26.2920   39.8430   24.2080 C.3   181  GLN181      0.0367
     63  CG        24.9170   39.3610   24.6260 C.3   181  GLN181      0.0905
     64  CD        23.9090   40.4840   24.6900 C.2   181  GLN181      0.2608
     65  OE1       23.8000   41.2860   23.7480 O.2   181  GLN181     -0.2717
     66  NE2       23.1340   40.5340   25.7760 N.am  181  GLN181     -0.0878
     67  N         29.8420   41.2430   21.4120 N.3   183  TYR183     -0.1227
     68  CA        29.6950   42.3580   20.4570 C.3   183  TYR183      0.1736
     69  C         29.1440   43.5590   21.1900 C.2   183  TYR183      0.2595
     70  O         28.8470   43.4620   22.3770 O.2   183  TYR183     -0.2718
     71  CB        28.8120   41.9980   19.2580 C.3   183  TYR183      0.0548
     72  CG        27.4070   41.6310   19.6120 C.ar  183  TYR183     -0.0200
     73  CD1       27.0860   40.3320   19.9870 C.ar  183  TYR183     -0.0009
     74  CD2       26.3930   42.5790   19.5510 C.ar  183  TYR183     -0.0009
     75  CE1       25.7820   39.9560   20.2450 C.ar  183  TYR183      0.0417
     76  CE2       25.0760   42.2260   19.8500 C.ar  183  TYR183      0.0417
     77  CZ        24.7790   40.9180   20.1780 C.ar  183  TYR183      0.1957
     78  OH        23.4820   40.5570   20.4330 O.3   183  TYR183     -0.2866
     79  N         29.1370   44.7070   20.5300 N.am  184  ASN184     -0.1974
     80  CA        28.7810   45.9510   21.1850 C.3   184  ASN184      0.1688
     81  C         29.6830   46.2250   22.3760 C.2   184  ASN184      0.2292
     82  O         29.3080   46.9390   23.3150 O.2   184  ASN184     -0.2864
     83  CB        27.3610   45.9070   21.6830 C.3   184  ASN184      0.1181
     84  CG        26.3970   46.2570   20.6120 C.2   184  ASN184      0.2629
     85  OD1       26.7810   46.8170   19.5970 O.2   184  ASN184     -0.2716
     86  ND2       25.1900   45.7700   20.7360 N.am  184  ASN184     -0.0877
     87  N         22.4170   44.1580   12.8590 N.3   224  ALA224     -0.1231
     88  CA        21.9100   43.6550   14.1430 C.3   224  ALA224      0.1694
     89  C         22.6000   44.2120   15.3750 C.2   224  ALA224      0.2591
     90  O         22.1480   43.9380   16.4870 O.2   224  ALA224     -0.2718
     91  CB        21.9780   42.1180   14.1730 C.3   224  ALA224      0.0304
     92  N         23.7180   44.9150   15.1880 N.am  225  ALA225     -0.1980
     93  CA        24.4900   45.4380   16.3140 C.3   225  ALA225      0.1597
     94  C         25.2400   46.6860   15.9050 C.2   225  ALA225      0.2287
     95  O         25.5310   46.8730   14.7440 O.2   225  ALA225     -0.2864
     96  CB        25.4960   44.3960   16.7960 C.3   225  ALA225      0.0319
     97  N         25.1700   31.5940   19.7220 N.3   253  MET253     -0.1245
     98  CA        23.8650   32.2450   19.9000 C.3   253  MET253      0.1570
     99  C         23.7760   33.4490   18.9310 C.2   253  MET253      0.2261
    100  O         24.7710   34.1380   18.7250 O.2   253  MET253     -0.2867
    101  CB        23.6920   32.7450   21.3420 C.3   253  MET253      0.0387
    102  CG        22.4340   33.6210   21.5490 C.3   253  MET253      0.0595
    103  SD        22.6810   35.3790   21.1560 S.3   253  MET253     -0.1393
    104  CE        23.4870   35.8920   22.5470 C.3   253  MET253      0.0692
    105  N         21.5790   37.0420   17.5760 N.3   255  TRP255     -0.1241
    106  CA        20.5210   38.0440   17.6200 C.3   255  TRP255      0.1605
    107  C         20.3990   38.4600   16.1390 C.2   255  TRP255      0.2264
    108  O         21.3550   38.9990   15.5960 O.2   255  TRP255     -0.2867
    109  CB        20.9830   39.2720   18.4450 C.3   255  TRP255      0.0550
    110  CG        19.9160   40.3400   18.4700 C.ar  255  TRP255      0.0003
    111  CD1       19.7580   41.3710   17.5630 C.ar  255  TRP255      0.0946
    112  CD2       18.7300   40.3480   19.2970 C.ar  255  TRP255      0.0152
    113  NE1       18.5300   41.9780   17.7600 N.ar  255  TRP255     -0.2442
    114  CE2       17.9180   41.4290   18.8580 C.ar  255  TRP255      0.0810
    115  CE3       18.2970   39.5770   20.3880 C.ar  255  TRP255      0.0012
    116  CZ2       16.6670   41.7170   19.4390 C.ar  255  TRP255      0.0191
    117  CZ3       17.0680   39.9030   21.0010 C.ar  255  TRP255      0.0001
    118  CH2       16.2720   40.9550   20.5170 C.ar  255  TRP255      0.0015
@<TRIPOS>BOND
     1    87    88    1
     2    88    91    1
     3    88    89    1
     4    95    94    2
     5    92    89   am
     6    92    93    1
     7    89    90    2
     8   108   107    2
     9    94    93    1
    10   107   106    1
    11    93    96    1
    12   111   113   ar
    13   111   110   ar
    14   105   106    1
    15     4     3    2
    16   106   109    1
    17   113   114   ar
    18   109   110    1
    19   110   112   ar
    20   100    99    2
    21     3     2    1
    22   114   112   ar
    23   114   116   ar
    24    99    98    1
    25     1     2    1
    26    71    72    1
    27    71    68    1
    28   112   115   ar
    29   116   118   ar
    30    74    72   ar
    31    74    76   ar
    32    85    84    2
    33    72    73   ar
    34    97    98    1
    35     2     5    1
    36    76    77   ar
    37    98   101    1
    38    73    75   ar
    39    77    75   ar
    40    77    78    1
    41     5     6    1
    42   115   117   ar
    43    68    69    1
    44    68    67    1
    45   118   117   ar
    46    79    80    1
    47    79    69   am
    48    84    86   am
    49    84    83    1
    50   103   102    1
    51   103   104    1
    52    80    83    1
    53    80    81    1
    54    69    70    2
    55   101   102    1
    56     6     7   ar
    57     6     8   ar
    58     7     9   ar
    59    35    33    1
    60    81    82    2
    61     8    10   ar
    62     9    11   ar
    63    60    59    1
    64    60    61    2
    65    22    23   ar
    66    22    20   ar
    67    33    32    1
    68    65    64    2
    69    59    62    1
    70    59    58    1
    71    10    11   ar
    72    23    21   ar
    73    11    12    1
    74    20    18   ar
    75    62    63    1
    76    13    14    1
    77    63    64    1
    78    64    66   am
    79    32    34    1
    80    32    29    1
    81    21    19   ar
    82    18    19   ar
    83    18    17    1
    84    25    24    1
    85    25    26    1
    86    14    17    1
    87    14    15    1
    88    28    26   am
    89    28    29    1
    90    26    27    2
    91    29    30    1
    92    43    41   ar
    93    52    50   ar
    94    16    15    2
    95    51    50   ar
    96    50    49    1
    97    31    30    2
    98    57    54    1
    99    41    42   ar
   100    41    40    1
   101    40    37    1
   102    54    55    1
   103    54    53    1
   104    56    55    2
   105    49    48    1
   106    48    45    1
   107    37    38    1
   108    37    36    1
   109    39    38    2
   110    45    44    1
   111    45    46    1
   112    47    46    2
