@<TRIPOS>MOLECULE
tmp/1lloA00.pdb
 116 111 0 0 0
SMALL
GASTEIGER

@<TRIPOS>ATOM
      1  N         11.2360   40.3060   18.3180 N.3     9  GLN9       -0.1231
      2  CA        11.3600   41.7630   18.1630 C.3     9  GLN9        0.1698
      3  C         11.1530   42.3580   16.7710 C.2     9  GLN9        0.2592
      4  O         11.3710   43.5430   16.5780 O.2     9  GLN9       -0.2718
      5  CB        12.6530   42.2730   18.8290 C.3     9  GLN9        0.0381
      6  CG        12.5750   42.1410   20.3680 C.3     9  GLN9        0.0905
      7  CD        11.5610   43.1080   20.9230 C.2     9  GLN9        0.2608
      8  OE1       11.7390   44.2900   20.7850 O.2     9  GLN9       -0.2717
      9  NE2       10.4680   42.6190   21.4650 N.am    9  GLN9       -0.0878
     10  N         10.7210   41.5250   15.8250 N.am   10  ASN10      -0.1974
     11  CA        10.3720   42.0040   14.4860 C.3    10  ASN10       0.1688
     12  C          9.2330   41.1700   13.9480 C.2    10  ASN10       0.2292
     13  O          9.3800   39.9870   13.6770 O.2    10  ASN10      -0.2864
     14  CB        11.5450   41.9880   13.5020 C.3    10  ASN10       0.1181
     15  CG        11.2350   42.7900   12.2210 C.2    10  ASN10       0.2629
     16  OD1       10.2190   42.5620   11.5640 O.2    10  ASN10      -0.2716
     17  ND2       12.0250   43.8160   11.9660 N.am   10  ASN10      -0.0877
     18  N         10.5360   40.2550   24.3170 N.3    32  PHE32      -0.1241
     19  CA        11.0320   40.2830   25.6950 C.3    32  PHE32       0.1605
     20  C          9.8710   40.5430   26.6520 C.2    32  PHE32       0.2264
     21  O          8.8640   41.1810   26.2990 O.2    32  PHE32      -0.2867
     22  CB        11.9230   41.5400   25.8700 C.3    32  PHE32       0.0534
     23  CG        13.3030   41.4320   25.2610 C.ar   32  PHE32      -0.0203
     24  CD1       14.2700   40.5450   25.8040 C.ar   32  PHE32      -0.0042
     25  CD2       13.6760   42.2820   24.1920 C.ar   32  PHE32      -0.0042
     26  CE1       15.5560   40.4480   25.2400 C.ar   32  PHE32      -0.0003
     27  CE2       14.9670   42.1870   23.6200 C.ar   32  PHE32      -0.0003
     28  CZ        15.9100   41.2700   24.1520 C.ar   32  PHE32      -0.0000
     29  N          9.8050   43.0440   28.9480 N.3    34  ASN34      -0.1240
     30  CA        10.6650   44.2240   29.1960 C.3    34  ASN34       0.1653
     31  C         10.2150   45.1830   30.2880 C.2    34  ASN34       0.2266
     32  O         10.8950   46.1480   30.5850 O.2    34  ASN34      -0.2867
     33  CB        10.9880   45.0070   27.9210 C.3    34  ASN34       0.1155
     34  CG         9.8000   45.7310   27.3950 C.2    34  ASN34       0.2627
     35  OD1        8.6850   45.2330   27.4750 O.2    34  ASN34      -0.2716
     36  ND2        9.9950   46.9820   27.0310 N.am   34  ASN34      -0.0877
     37  N          6.5820   42.4190   25.3050 N.3    45  ASN45      -0.1240
     38  CA         6.5910   43.1350   24.0450 C.3    45  ASN45       0.1653
     39  C          7.0830   42.1980   22.9640 C.2    45  ASN45       0.2266
     40  O          8.2050   41.7380   23.0310 O.2    45  ASN45      -0.2867
     41  CB         7.5160   44.3370   24.1010 C.3    45  ASN45       0.1155
     42  CG         7.5610   45.0900   22.7850 C.2    45  ASN45       0.2627
     43  OD1        8.1830   44.6460   21.8170 O.2    45  ASN45      -0.2716
     44  ND2        6.9170   46.2410   22.7450 N.am   45  ASN45      -0.0877
     45  N          6.8550   43.1350   19.5940 N.3    47  ALA47      -0.1245
     46  CA         6.7980   44.0260   18.4470 C.3    47  ALA47       0.1562
     47  C          5.4740   43.8530   17.6920 C.2    47  ALA47       0.2260
     48  O          4.4190   43.8090   18.3110 O.2    47  ALA47      -0.2867
     49  CB         8.0210   43.8030   17.5350 C.3    47  ALA47       0.0290
     50  N         16.2700   43.1700   28.1270 N.3    80  GLY80      -0.1210
     51  CA        16.5540   43.6960   26.8110 C.3    80  GLY80       0.1956
     52  C         17.1220   45.1070   26.8920 C.2    80  GLY80       0.2612
     53  O         17.2580   45.7040   27.9670 O.2    80  GLY80      -0.2717
     54  N         17.5000   45.6110   25.7290 N.am   81  GLY81      -0.1942
     55  CA        18.1170   46.9290   25.6370 C.3    81  GLY81       0.2014
     56  C         17.1630   48.0500   26.0410 C.2    81  GLY81       0.2638
     57  O         17.5990   49.1030   26.5110 O.2    81  GLY81      -0.2714
     58  N         15.8710   47.8350   25.8150 N.am   82  ILE82      -0.1977
     59  CA        14.8490   48.8390   26.1060 C.3    82  ILE82       0.1596
     60  C         13.8630   48.3520   27.1540 C.2    82  ILE82       0.2287
     61  O         13.1630   47.3610   26.9550 O.2    82  ILE82      -0.2864
     62  CB        14.0250   49.2460   24.8150 C.3    82  ILE82       0.0276
     63  CG1       14.9470   49.7680   23.6810 C.3    82  ILE82       0.0022
     64  CG2       12.9760   50.3110   25.1660 C.3    82  ILE82       0.0022
     65  CD1       14.2580   49.9970   22.3510 C.3    82  ILE82       0.0001
     66  N         23.7430   44.8630   10.5180 N.3   223  GLU223     -0.1231
     67  CA        22.6750   45.7470   11.0100 C.3   223  GLU223      0.1699
     68  C         22.1600   45.3850   12.4240 C.2   223  GLU223      0.2592
     69  O         21.4780   46.1870   13.0710 O.2   223  GLU223     -0.2718
     70  CB        21.4620   45.6560   10.0580 C.3   223  GLU223      0.0402
     71  CG        21.6880   46.2380    8.6460 C.3   223  GLU223      0.1161
     72  CD        22.5460   45.3760    7.7080 C.2   223  GLU223      0.3649
     73  OE1       22.7100   44.1610    7.9320 O.co2 223  GLU223     -0.2457
     74  OE2       23.0820   45.9370    6.7250 O.co2 223  GLU223     -0.2457
     75  N         22.4170   44.1580   12.8590 N.am  224  ALA224     -0.1966
     76  CA        21.9100   43.6550   14.1430 C.3   224  ALA224      0.1728
     77  C         22.6000   44.2120   15.3750 C.2   224  ALA224      0.2616
     78  O         22.1480   43.9380   16.4870 O.2   224  ALA224     -0.2715
     79  CB        21.9780   42.1180   14.1730 C.3   224  ALA224      0.0334
     80  N         23.7180   44.9150   15.1880 N.am  225  ALA225     -0.1977
     81  CA        24.4900   45.4380   16.3140 C.3   225  ALA225      0.1597
     82  C         25.2400   46.6860   15.9050 C.2   225  ALA225      0.2287
     83  O         25.5310   46.8730   14.7440 O.2   225  ALA225     -0.2864
     84  CB        25.4960   44.3960   16.7960 C.3   225  ALA225      0.0319
     85  N         21.5790   37.0420   17.5760 N.3   255  TRP255     -0.1227
     86  CA        20.5210   38.0440   17.6200 C.3   255  TRP255      0.1737
     87  C         20.3990   38.4600   16.1390 C.2   255  TRP255      0.2596
     88  O         21.3550   38.9990   15.5960 O.2   255  TRP255     -0.2718
     89  CB        20.9830   39.2720   18.4450 C.3   255  TRP255      0.0564
     90  CG        19.9160   40.3400   18.4700 C.ar  255  TRP255      0.0003
     91  CD1       19.7580   41.3710   17.5630 C.ar  255  TRP255      0.0946
     92  CD2       18.7300   40.3480   19.2970 C.ar  255  TRP255      0.0152
     93  NE1       18.5300   41.9780   17.7600 N.ar  255  TRP255     -0.2442
     94  CE2       17.9180   41.4290   18.8580 C.ar  255  TRP255      0.0810
     95  CE3       18.2970   39.5770   20.3880 C.ar  255  TRP255      0.0012
     96  CZ2       16.6670   41.7170   19.4390 C.ar  255  TRP255      0.0191
     97  CZ3       17.0680   39.9030   21.0010 C.ar  255  TRP255      0.0001
     98  CH2       16.2720   40.9550   20.5170 C.ar  255  TRP255      0.0015
     99  N         19.2940   38.2070   15.4350 N.am  256  SER256     -0.1952
    100  CA        18.0620   37.6190   15.9270 C.3   256  SER256      0.1924
    101  C         17.5070   36.8820   14.7120 C.2   256  SER256      0.2314
    102  O         18.0880   36.9600   13.6270 O.2   256  SER256     -0.2863
    103  CB        17.1020   38.7620   16.2750 C.3   256  SER256      0.2116
    104  OG        16.8180   39.5520   15.1190 O.3   256  SER256     -0.2180
    105  N         17.2440   39.1060   11.3950 N.3   259  TYR259     -0.1241
    106  CA        18.5110   39.3480   10.7060 C.3   259  TYR259      0.1605
    107  C         19.1300   38.0740   10.1530 C.2   259  TYR259      0.2264
    108  O         19.8390   38.1070    9.1620 O.2   259  TYR259     -0.2867
    109  CB        19.4990   40.1070   11.6010 C.3   259  TYR259      0.0534
    110  CG        19.0510   41.5350   11.8490 C.ar  259  TYR259     -0.0201
    111  CD1       19.0630   42.4780   10.8210 C.ar  259  TYR259     -0.0009
    112  CD2       18.4640   41.8760   13.0610 C.ar  259  TYR259     -0.0009
    113  CE1       18.5560   43.7590   11.0230 C.ar  259  TYR259      0.0417
    114  CE2       17.9730   43.1310   13.2850 C.ar  259  TYR259      0.0417
    115  CZ        17.9970   44.0750   12.2620 C.ar  259  TYR259      0.1957
    116  OH        17.4290   45.3220   12.5110 O.3   259  TYR259     -0.2866
@<TRIPOS>BOND
     1    74    72   ar
     2    72    73   ar
     3    72    71    1
     4    71    70    1
     5   108   107    2
     6    70    67    1
     7   107   106    1
     8    66    67    1
     9   106   105    1
    10   106   109    1
    11   111   113   ar
    12   111   110   ar
    13    67    68    1
    14   113   115   ar
    15    16    15    2
    16   109   110    1
    17   110   112   ar
    18    17    15   am
    19    15    14    1
    20   115   116    1
    21   115   114   ar
    22    68    75   am
    23    68    69    2
    24    75    76    1
    25   112   114   ar
    26    14    11    1
    27   102   101    2
    28    13    12    2
    29    12    11    1
    30    76    79    1
    31    76    77    1
    32    11    10    1
    33   101   100    1
    34    83    82    2
    35   104   103    1
    36    80    77   am
    37    80    81    1
    38    77    78    2
    39    99   100    1
    40    99    87   am
    41    88    87    2
    42    10     3   am
    43    82    81    1
    44   100   103    1
    45    87    86    1
    46    81    84    1
    47     4     3    2
    48     3     2    1
    49    49    46    1
    50    91    93   ar
    51    91    90   ar
    52    85    86    1
    53    86    89    1
    54    47    48    2
    55    47    46    1
    56    93    94   ar
    57     2     1    1
    58     2     5    1
    59    89    90    1
    60    46    45    1
    61    90    92   ar
    62     5     6    1
    63    94    92   ar
    64    94    96   ar
    65    92    95   ar
    66    96    98   ar
    67     6     7    1
    68    95    97   ar
    69    98    97   ar
    70     8     7    2
    71     7     9   am
    72    43    42    2
    73    65    63    1
    74    44    42   am
    75    42    41    1
    76    39    40    2
    77    39    38    1
    78    27    28   ar
    79    27    25   ar
    80    63    62    1
    81    38    41    1
    82    38    37    1
    83    28    26   ar
    84    25    23   ar
    85    18    19    1
    86    62    64    1
    87    62    59    1
    88    26    24   ar
    89    23    24   ar
    90    23    22    1
    91    55    54    1
    92    55    56    1
    93    19    22    1
    94    19    20    1
    95    54    52   am
    96    58    56   am
    97    58    59    1
    98    56    57    2
    99    59    60    1
   100    21    20    2
   101    51    52    1
   102    51    50    1
   103    52    53    2
   104    61    60    2
   105    36    34   am
   106    34    35    2
   107    34    33    1
   108    33    30    1
   109    29    30    1
   110    30    31    1
   111    31    32    2
