@<TRIPOS>MOLECULE
tmp/1llrB01.pdb
 115 114 0 0 0
SMALL
GASTEIGER

@<TRIPOS>ATOM
      1  N        -20.6470   59.3250    5.0060 N.3    11  GLU11      -0.1231
      2  CA       -19.8130   59.5840    3.8700 C.3    11  GLU11       0.1699
      3  C        -19.9830   58.5600    2.7840 C.2    11  GLU11       0.2592
      4  O        -19.3730   58.7300    1.7360 O.2    11  GLU11      -0.2718
      5  CB       -18.3200   59.7120    4.2070 C.3    11  GLU11       0.0402
      6  CG       -18.0320   60.8160    5.2100 C.3    11  GLU11       0.1161
      7  CD       -16.5630   61.0080    5.5220 C.2    11  GLU11       0.3649
      8  OE1      -15.8550   60.0380    5.7650 O.co2  11  GLU11      -0.2457
      9  OE2      -16.0660   62.1300    5.5910 O.co2  11  GLU11      -0.2457
     10  N        -20.7050   57.4670    3.0280 N.am   12  TYR12      -0.1962
     11  CA       -20.7540   56.3500    2.1040 C.3    12  TYR12       0.1771
     12  C        -22.2120   56.0880    1.7030 C.2    12  TYR12       0.2620
     13  O        -23.1020   56.3210    2.5070 O.2    12  TYR12      -0.2715
     14  CB       -20.2430   55.0650    2.8470 C.3    12  TYR12       0.0574
     15  CG       -18.7370   55.1700    3.0880 C.ar   12  TYR12      -0.0198
     16  CD1      -18.3990   55.7860    4.3140 C.ar   12  TYR12      -0.0009
     17  CD2      -17.8020   54.7760    2.2220 C.ar   12  TYR12      -0.0009
     18  CE1      -17.0480   55.9910    4.6390 C.ar   12  TYR12       0.0417
     19  CE2      -16.4340   54.9400    2.5220 C.ar   12  TYR12       0.0417
     20  CZ       -16.1300   55.5770    3.7300 C.ar   12  TYR12       0.1957
     21  OH       -14.7910   55.7810    4.0520 O.3    12  TYR12      -0.2866
     22  N        -22.4060   55.5790    0.5130 N.am   13  HIS13      -0.1959
     23  CA       -23.7290   55.1310    0.0890 C.3    13  HIS13       0.1787
     24  C        -24.0280   53.7530    0.6460 C.2    13  HIS13       0.2620
     25  O        -23.1340   52.9500    0.9880 O.2    13  HIS13      -0.2715
     26  CB       -23.7850   55.0840   -1.4350 C.3    13  HIS13       0.0785
     27  CG       -23.7730   56.4410   -2.0740 C.ar   13  HIS13       0.0821
     28  ND1      -22.9330   56.8220   -3.0820 N.ar   13  HIS13      -0.2267
     29  CD2      -24.5880   57.4980   -1.7860 C.ar   13  HIS13       0.1154
     30  CE1      -23.2040   58.0790   -3.4240 C.ar   13  HIS13       0.1986
     31  NE2      -24.1900   58.4880   -2.6220 N.ar   13  HIS13      -0.2212
     32  N        -25.2960   53.3570    0.6810 N.am   14  ASN14      -0.1972
     33  CA       -25.7340   52.0610    1.0860 C.3    14  ASN14       0.1688
     34  C        -25.2610   51.7330    2.4980 C.2    14  ASN14       0.2292
     35  O        -25.0440   50.5300    2.7220 O.2    14  ASN14      -0.2864
     36  CB       -25.2620   50.9400    0.1560 C.3    14  ASN14       0.1181
     37  CG       -25.6380   51.2000   -1.3100 C.2    14  ASN14       0.2629
     38  OD1      -24.7680   51.2990   -2.1990 O.2    14  ASN14      -0.2716
     39  ND2      -26.9360   51.3100   -1.4800 N.am   14  ASN14      -0.0877
     40  N        -17.3610   40.9220    6.2150 N.3    51  GLU51      -0.1245
     41  CA       -17.3440   40.2410    4.9310 C.3    51  GLU51       0.1567
     42  C        -15.9990   39.5550    4.6480 C.2    51  GLU51       0.2260
     43  O        -14.9260   39.9790    5.1220 O.2    51  GLU51      -0.2867
     44  CB       -17.5100   41.2800    3.7760 C.3    51  GLU51       0.0388
     45  CG       -18.9280   41.7580    3.6380 C.3    51  GLU51       0.1160
     46  CD       -19.0930   42.6230    2.4100 C.2    51  GLU51       0.3649
     47  OE1      -18.8170   43.8120    2.4000 O.co2  51  GLU51      -0.2457
     48  OE2      -19.4830   42.0810    1.3580 O.co2  51  GLU51      -0.2457
     49  N        -14.3080   44.0660   -3.9330 N.3    56  GLN56      -0.1231
     50  CA       -14.9500   45.2720   -3.5260 C.3    56  GLN56       0.1698
     51  C        -14.0850   46.1290   -2.5830 C.2    56  GLN56       0.2592
     52  O        -14.3770   47.2930   -2.4190 O.2    56  GLN56      -0.2718
     53  CB       -16.3320   45.0790   -2.8570 C.3    56  GLN56       0.0381
     54  CG       -16.3990   44.4580   -1.4920 C.3    56  GLN56       0.0905
     55  CD       -16.4550   42.9770   -1.4200 C.2    56  GLN56       0.2608
     56  OE1      -17.1550   42.3890   -0.5270 O.2    56  GLN56      -0.2717
     57  NE2      -15.7820   42.2920   -2.3310 N.am   56  GLN56      -0.0878
     58  N        -13.0940   45.4570   -1.9820 N.am   57  HIS57      -0.1962
     59  CA       -12.2790   46.1580   -1.0130 C.3    57  HIS57       0.1787
     60  C        -10.9980   46.6800   -1.6640 C.2    57  HIS57       0.2620
     61  O        -10.4190   46.0290   -2.5370 O.2    57  HIS57      -0.2715
     62  CB       -11.8630   45.1260    0.0640 C.3    57  HIS57       0.0785
     63  CG       -13.0140   44.5990    0.8610 C.ar   57  HIS57       0.0821
     64  ND1      -13.3830   43.2640    0.8410 N.ar   57  HIS57      -0.2267
     65  CD2      -13.8690   45.2610    1.6650 C.ar   57  HIS57       0.1154
     66  CE1      -14.4400   43.1650    1.6340 C.ar   57  HIS57       0.1986
     67  NE2      -14.7860   44.3580    2.1460 N.ar   57  HIS57      -0.2212
     68  N        -10.5970   47.8720   -1.2520 N.am   58  ILE58      -0.1977
     69  CA        -9.3400   48.4030   -1.7350 C.3    58  ILE58       0.1596
     70  C         -8.2380   47.8730   -0.8200 C.2    58  ILE58       0.2287
     71  O         -8.4700   47.3210    0.2840 O.2    58  ILE58      -0.2864
     72  CB        -9.3480   49.9170   -1.8110 C.3    58  ILE58       0.0276
     73  CG1       -9.5590   50.5930   -0.4510 C.3    58  ILE58       0.0022
     74  CG2      -10.3690   50.4710   -2.8580 C.3    58  ILE58       0.0022
     75  CD1       -9.5470   52.1100   -0.5690 C.3    58  ILE58       0.0001
     76  N         -8.0670   48.5160    2.9650 N.3    61  GLN61      -0.1245
     77  CA        -9.0850   47.9480    3.8390 C.3    61  GLN61       0.1566
     78  C         -8.6850   46.5340    4.3130 C.2    61  GLN61       0.2260
     79  O         -9.2510   46.0970    5.3400 O.2    61  GLN61      -0.2867
     80  CB       -10.4410   47.8440    3.1440 C.3    61  GLN61       0.0367
     81  CG       -11.0300   49.1670    2.7000 C.3    61  GLN61       0.0905
     82  CD       -12.3910   48.9550    2.0350 C.2    61  GLN61       0.2608
     83  OE1      -12.3670   48.7720    0.8120 O.2    61  GLN61      -0.2717
     84  NE2      -13.4600   48.9510    2.8240 N.am   61  GLN61      -0.0878
     85  N        -22.9500   48.3770    5.8310 N.3    88  TRP88      -0.1241
     86  CA       -23.5330   48.3760    4.4670 C.3    88  TRP88       0.1605
     87  C        -24.7850   47.5270    4.5320 C.2    88  TRP88       0.2264
     88  O        -24.7550   46.3540    4.9640 O.2    88  TRP88      -0.2867
     89  CB       -22.5360   47.8970    3.4560 C.3    88  TRP88       0.0550
     90  CG       -21.4340   48.8820    3.1540 C.ar   88  TRP88       0.0003
     91  CD1      -21.4670   50.0090    2.3800 C.ar   88  TRP88       0.0946
     92  CD2      -20.0880   48.7920    3.6840 C.ar   88  TRP88       0.0152
     93  NE1      -20.2510   50.6020    2.3790 N.ar   88  TRP88      -0.2442
     94  CE2      -19.3660   49.8690    3.1690 C.ar   88  TRP88       0.0810
     95  CE3      -19.4230   47.8480    4.5020 C.ar   88  TRP88       0.0012
     96  CZ2      -18.0010   50.0900    3.4320 C.ar   88  TRP88       0.0191
     97  CZ3      -18.1010   48.0690    4.7470 C.ar   88  TRP88       0.0001
     98  CH2      -17.3850   49.1400    4.2250 C.ar   88  TRP88       0.0015
     99  N        -26.6540   46.6630    1.7290 N.3    90  ASN90      -0.1225
    100  CA       -26.8210   46.0130    0.4420 C.3    90  ASN90       0.1785
    101  C        -26.2000   44.6220    0.4680 C.2    90  ASN90       0.2597
    102  O        -25.8240   44.0380   -0.5770 O.2    90  ASN90      -0.2718
    103  CB       -26.2600   46.8890   -0.6610 C.3    90  ASN90       0.1169
    104  CG       -24.7800   47.1290   -0.6290 C.2    90  ASN90       0.2627
    105  OD1      -24.1360   46.9070    0.4050 O.2    90  ASN90      -0.2716
    106  ND2      -24.1540   47.5790   -1.6950 N.am   90  ASN90      -0.0877
    107  N        -25.9940   44.1080    1.6850 N.am   91  LYS91      -0.1980
    108  CA       -25.4980   42.7540    1.9650 C.3    91  LYS91       0.1596
    109  C        -26.3870   42.1400    3.0380 C.2    91  LYS91       0.2287
    110  O        -26.9590   42.8390    3.9040 O.2    91  LYS91      -0.2864
    111  CB       -24.0530   42.8280    2.4920 C.3    91  LYS91       0.0298
    112  CG       -23.0760   43.3400    1.4470 C.3    91  LYS91       0.0038
    113  CD       -22.8450   42.3550    0.2930 C.3    91  LYS91       0.0206
    114  CE       -22.2690   43.0540   -0.9570 C.3    91  LYS91       0.1093
    115  NZ       -20.9110   43.5910   -0.6250 N.3    91  LYS91      -0.1314
@<TRIPOS>BOND
     1    49    50    1
     2    50    53    1
     3    50    51    1
     4    30    28   ar
     5    30    31   ar
     6    28    27   ar
     7    74    72    1
     8    53    54    1
     9    31    29   ar
    10    51    52    2
    11    51    58   am
    12    61    60    2
    13    57    55   am
    14    38    37    2
    15    27    29   ar
    16    27    26    1
    17    58    59    1
    18    72    69    1
    19    72    73    1
    20    69    68    1
    21    69    70    1
    22   106   104   am
    23    60    68   am
    24    60    59    1
    25    54    55    1
    26    39    37   am
    27    26    23    1
    28    55    56    2
    29    37    36    1
    30    59    62    1
    31   114   115    1
    32   114   113    1
    33    70    71    2
    34   103   104    1
    35   103   100    1
    36   104   105    2
    37   102   101    2
    38    75    73    1
    39    62    63    1
    40    23    22    1
    41    23    24    1
    42    36    33    1
    43   113   112    1
    44   100   101    1
    45   100    99    1
    46   101   107   am
    47    22    12   am
    48    24    32   am
    49    24    25    2
    50    32    33    1
    51    83    82    2
    52    64    63   ar
    53    64    66   ar
    54    63    65   ar
    55    33    34    1
    56    48    46   ar
    57   112   111    1
    58    66    67   ar
    59    65    67   ar
    60   107   108    1
    61    12    11    1
    62    12    13    2
    63     4     3    2
    64   108   111    1
    65   108   109    1
    66    82    81    1
    67    82    84   am
    68    11    14    1
    69    11    10    1
    70    17    19   ar
    71    17    15   ar
    72    93    91   ar
    73    93    94   ar
    74    91    90   ar
    75    47    46   ar
    76    46    45    1
    77    34    35    2
    78    19    20   ar
    79    81    80    1
    80     3    10   am
    81     3     2    1
    82    14    15    1
    83    76    77    1
    84   109   110    2
    85    15    16   ar
    86    80    77    1
    87    90    89    1
    88    90    92   ar
    89    94    96   ar
    90    94    92   ar
    91    96    98   ar
    92    89    86    1
    93    45    44    1
    94    92    95   ar
    95    20    21    1
    96    20    18   ar
    97    44    41    1
    98    77    78    1
    99     2     5    1
   100     2     1    1
   101     5     6    1
   102    98    97   ar
   103    78    79    2
   104    16    18   ar
   105    86    87    1
   106    86    85    1
   107    95    97   ar
   108    87    88    2
   109    42    41    1
   110    42    43    2
   111    41    40    1
   112     6     7    1
   113     7     9   ar
   114     7     8   ar
