@<TRIPOS>MOLECULE
tmp/1lmcA00.pdb
 159 155 0 0 0
SMALL
GASTEIGER

@<TRIPOS>ATOM
      1  N         44.2500   37.9510   16.1370 N.3    35  GLU35      -0.1245
      2  CA        44.4290   37.4680   17.5080 C.3    35  GLU35       0.1567
      3  C         44.8410   36.0070   17.5890 C.2    35  GLU35       0.2260
      4  O         45.7720   35.7510   18.3770 O.2    35  GLU35      -0.2867
      5  CB        43.1520   37.6290   18.3360 C.3    35  GLU35       0.0388
      6  CG        42.7560   39.0140   18.8410 C.3    35  GLU35       0.1160
      7  CD        43.6440   39.5640   19.9350 C.2    35  GLU35       0.3649
      8  OE1       44.6200   38.9830   20.3840 O.co2  35  GLU35      -0.2457
      9  OE2       43.3180   40.6980   20.3590 O.co2  35  GLU35      -0.2457
     10  N         48.4020   32.3180   25.0410 N.3    44  ASN44      -0.1225
     11  CA        49.4750   33.3000   25.0830 C.3    44  ASN44       0.1785
     12  C         49.7140   33.8260   26.4870 C.2    44  ASN44       0.2597
     13  O         48.8270   34.5620   26.9730 O.2    44  ASN44      -0.2718
     14  CB        49.0830   34.4110   24.0980 C.3    44  ASN44       0.1169
     15  CG        50.1700   35.4790   24.0750 C.2    44  ASN44       0.2627
     16  OD1       51.2380   35.0990   23.5550 O.2    44  ASN44      -0.2716
     17  ND2       49.9640   36.6880   24.6060 N.am   44  ASN44      -0.0877
     18  N         50.8360   33.5210   27.1030 N.am   45  ARG45      -0.1966
     19  CA        51.0190   34.0500   28.4710 C.3    45  ARG45       0.1729
     20  C         51.5380   35.4820   28.4250 C.2    45  ARG45       0.2616
     21  O         52.3620   35.8500   27.5690 O.2    45  ARG45      -0.2715
     22  CB        51.9050   33.1120   29.3000 C.3    45  ARG45       0.0348
     23  CG        51.9650   33.6200   30.7420 C.3    45  ARG45       0.0492
     24  CD        51.6220   32.6900   31.8230 C.3    45  ARG45       0.2205
     25  NE        52.7530   31.8150   32.1570 N.pl3  45  ARG45      -0.0865
     26  CZ        52.8720   30.5970   31.6110 C.cat  45  ARG45       0.5346
     27  NH1       52.3810   30.2950   30.4070 N.pl3  45  ARG45       0.1354
     28  NH2       53.4750   29.6320   32.3100 N.pl3  45  ARG45       0.1354
     29  N         51.0580   36.3060   29.3450 N.am   46  ASN46      -0.1958
     30  CA        51.4490   37.7100   29.4460 C.3    46  ASN46       0.1819
     31  C         52.4100   37.9290   30.6090 C.2    46  ASN46       0.2622
     32  O         52.3870   37.1540   31.5640 O.2    46  ASN46      -0.2715
     33  CB        50.2360   38.5970   29.6040 C.3    46  ASN46       0.1195
     34  CG        49.5030   38.5060   28.2860 C.2    46  ASN46       0.2630
     35  OD1       48.3180   38.2360   28.3960 O.2    46  ASN46      -0.2716
     36  ND2       50.1530   38.6540   27.1530 N.am   46  ASN46      -0.0877
     37  N         53.1650   38.9860   30.4420 N.am   47  THR47      -0.1937
     38  CA        54.1950   39.4510   31.3660 C.3    47  THR47       0.2028
     39  C         53.7470   39.5630   32.8070 C.2    47  THR47       0.2642
     40  O         54.5300   39.3530   33.7330 O.2    47  THR47      -0.2714
     41  CB        54.7400   40.8560   30.8890 C.3    47  THR47       0.1808
     42  OG1       53.6150   41.7380   31.2100 O.3    47  THR47      -0.2208
     43  CG2       55.1910   40.7920   29.4340 C.3    47  THR47       0.0379
     44  N         52.4800   39.8690   32.9320 N.am   48  ASP48      -0.1971
     45  CA        51.7290   40.0300   34.1910 C.3    48  ASP48       0.1709
     46  C         51.1320   38.7750   34.8380 C.2    48  ASP48       0.2293
     47  O         50.4420   38.9120   35.8840 O.2    48  ASP48      -0.2864
     48  CB        50.6070   41.0470   33.8990 C.3    48  ASP48       0.1436
     49  CG        49.4360   40.5050   33.0970 C.2    48  ASP48       0.3671
     50  OD1       49.4060   39.3820   32.5610 O.co2  48  ASP48      -0.2456
     51  OD2       48.4990   41.3320   33.0230 O.co2  48  ASP48      -0.2456
     52  N         45.9570   34.6960   27.6760 N.3    52  ASP52      -0.1239
     53  CA        44.9570   34.9330   26.6410 C.3    52  ASP52       0.1674
     54  C         44.5370   33.5460   26.1100 C.2    52  ASP52       0.2266
     55  O         45.4250   32.7300   25.8970 O.2    52  ASP52      -0.2867
     56  CB        45.4260   35.8490   25.5340 C.3    52  ASP52       0.1410
     57  CG        45.7690   37.2240   26.1170 C.2    52  ASP52       0.3668
     58  OD1       45.1960   37.7450   27.0920 O.co2  52  ASP52      -0.2456
     59  OD2       46.6470   37.7700   25.4940 O.co2  52  ASP52      -0.2456
     60  N         41.2330   35.3640   22.0730 N.3    57  GLN57      -0.1231
     61  CA        42.3090   35.6120   23.0200 C.3    57  GLN57       0.1698
     62  C         41.7880   36.4430   24.1930 C.2    57  GLN57       0.2592
     63  O         42.2640   37.5290   24.4820 O.2    57  GLN57      -0.2718
     64  CB        43.5550   36.3120   22.4040 C.3    57  GLN57       0.0381
     65  CG        44.2610   35.4440   21.3640 C.3    57  GLN57       0.0905
     66  CD        45.1150   34.4350   22.0790 C.2    57  GLN57       0.2608
     67  OE1       46.1960   34.7630   22.5000 O.2    57  GLN57      -0.2717
     68  NE2       44.6190   33.2330   22.2760 N.am   57  GLN57      -0.0878
     69  N         40.8320   35.8590   24.8770 N.am   58  ILE58      -0.1966
     70  CA        40.2380   36.4560   26.1080 C.3    58  ILE58       0.1727
     71  C         41.1900   36.2940   27.2870 C.2    58  ILE58       0.2616
     72  O         41.7180   35.2110   27.5790 O.2    58  ILE58      -0.2715
     73  CB        38.8060   35.8740   26.3060 C.3    58  ILE58       0.0290
     74  CG1       37.9120   36.4280   25.1430 C.3    58  ILE58       0.0022
     75  CG2       38.2510   36.1560   27.7200 C.3    58  ILE58       0.0023
     76  CD1       36.5600   35.6780   24.9790 C.3    58  ILE58       0.0001
     77  N         41.4010   37.3850   28.0070 N.am   59  ASN59      -0.1972
     78  CA        42.3860   37.4680   29.1040 C.3    59  ASN59       0.1688
     79  C         41.8770   36.9830   30.4420 C.2    59  ASN59       0.2292
     80  O         40.7230   37.2300   30.8370 O.2    59  ASN59      -0.2864
     81  CB        42.8860   38.9340   29.0330 C.3    59  ASN59       0.1181
     82  CG        44.0580   39.0820   29.9960 C.2    59  ASN59       0.2629
     83  OD1       43.8450   39.3800   31.2130 O.2    59  ASN59      -0.2716
     84  ND2       45.2380   38.8310   29.4310 N.am   59  ASN59      -0.0877
     85  N         40.6400   39.2960   33.9150 N.3    62  TYR62      -0.1227
     86  CA        39.2730   39.7810   34.1150 C.3    62  TYR62       0.1736
     87  C         38.1190   38.8750   33.7270 C.2    62  TYR62       0.2592
     88  O         37.0780   38.9550   34.4190 O.2    62  TYR62      -0.2718
     89  CB        39.0670   41.0890   33.2960 C.3    62  TYR62       0.0548
     90  CG        40.2320   42.0510   33.3570 C.ar   62  TYR62      -0.0200
     91  CD1       40.3800   43.0090   34.3660 C.ar   62  TYR62      -0.0009
     92  CD2       41.2170   41.9830   32.3550 C.ar   62  TYR62      -0.0009
     93  CE1       41.4770   43.8690   34.4050 C.ar   62  TYR62       0.0417
     94  CE2       42.3220   42.8380   32.3800 C.ar   62  TYR62       0.0417
     95  CZ        42.4550   43.7820   33.4130 C.ar   62  TYR62       0.1957
     96  OH        43.5370   44.6420   33.4340 O.3    62  TYR62      -0.2866
     97  N         38.2460   38.0620   32.6700 N.am   63  TRP63      -0.2029
     98  CA        37.0810   37.3130   32.1940 C.3    63  TRP63       0.1326
     99  C         36.9600   35.8590   32.5270 C.3    63  TRP63       0.2039
    100  O         35.7870   35.4700   32.4680 O.3    63  TRP63      -0.2185
    101  CB        37.0900   37.4860   30.6250 C.3    63  TRP63       0.0523
    102  CG        37.2780   38.9250   30.2510 C.ar   63  TRP63       0.0002
    103  CD1       38.3860   39.5610   29.7820 C.ar   63  TRP63       0.0946
    104  CD2       36.2530   39.9360   30.3520 C.ar   63  TRP63       0.0152
    105  NE1       38.1610   40.9040   29.5900 N.ar   63  TRP63      -0.2442
    106  CE2       36.8510   41.1440   29.9310 C.ar   63  TRP63       0.0810
    107  CE3       34.9130   39.9040   30.7860 C.ar   63  TRP63       0.0012
    108  CZ2       36.1280   42.3370   29.9200 C.ar   63  TRP63       0.0191
    109  CZ3       34.1910   41.0940   30.7720 C.ar   63  TRP63       0.0001
    110  CH2       34.8130   42.2900   30.3210 C.ar   63  TRP63       0.0015
    111  N         32.2460   40.8120   26.9740 N.3    98  VAL98      -0.1301
    112  CA        33.4010   41.6990   26.8710 C.3    98  VAL98       0.1246
    113  C         33.0000   42.9460   26.0670 C.3    98  VAL98       0.2009
    114  O         33.4150   44.0130   26.5930 O.3    98  VAL98      -0.2188
    115  CB        34.6430   41.0090   26.2710 C.3    98  VAL98       0.0202
    116  CG1       35.8310   41.9800   26.1240 C.3    98  VAL98       0.0016
    117  CG2       35.1290   39.7900   27.0100 C.3    98  VAL98       0.0016
    118  N         31.2880   46.2160   27.7370 N.3   101  ASP101     -0.1239
    119  CA        32.0320   47.1670   28.5510 C.3   101  ASP101      0.1674
    120  C         32.2530   48.4230   27.6720 C.2   101  ASP101      0.2266
    121  O         32.1460   48.4370   26.4370 O.2   101  ASP101     -0.2867
    122  CB        33.3060   46.5670   29.0960 C.3   101  ASP101      0.1410
    123  CG        33.1120   46.0130   30.4940 C.2   101  ASP101      0.3668
    124  OD1       31.9530   45.7960   30.8780 O.co2 101  ASP101     -0.2456
    125  OD2       34.1330   45.7950   31.1870 O.co2 101  ASP101     -0.2456
    126  N         34.7440   50.0870   26.7970 N.3   103  ASN103     -0.1240
    127  CA        35.7880   50.1150   25.7670 C.3   103  ASN103      0.1653
    128  C         35.3260   49.4100   24.4740 C.2   103  ASN103      0.2266
    129  O         35.9560   49.5370   23.4210 O.2   103  ASN103     -0.2867
    130  CB        37.0690   49.4950   26.3040 C.3   103  ASN103      0.1155
    131  CG        37.9120   50.5280   27.0510 C.2   103  ASN103      0.2627
    132  OD1       37.4960   51.6840   27.1660 O.2   103  ASN103     -0.2716
    133  ND2       39.0720   50.1860   27.5710 N.am  103  ASN103     -0.0877
    134  N         38.7600   46.6480   23.2610 N.3   107  ALA107     -0.1231
    135  CA        39.3570   45.8570   24.3370 C.3   107  ALA107      0.1694
    136  C         40.4330   44.9230   23.7680 C.2   107  ALA107      0.2592
    137  O         41.2910   44.4270   24.4870 O.2   107  ALA107     -0.2718
    138  CB        38.3760   44.9610   25.0790 C.3   107  ALA107      0.0304
    139  N         40.2610   44.6130   22.5000 N.am  108  TRP108     -0.1962
    140  CA        41.1410   43.7170   21.7480 C.3   108  TRP108      0.1771
    141  C         42.2770   44.5350   21.1170 C.2   108  TRP108      0.2619
    142  O         42.0400   45.3600   20.2190 O.2   108  TRP108     -0.2715
    143  CB        40.3470   42.8910   20.7050 C.3   108  TRP108      0.0590
    144  CG        39.6310   41.7060   21.2620 C.ar  108  TRP108      0.0006
    145  CD1       40.1630   40.4660   21.5290 C.ar  108  TRP108      0.0946
    146  CD2       38.2560   41.6440   21.7100 C.ar  108  TRP108      0.0152
    147  NE1       39.1880   39.6560   22.0740 N.ar  108  TRP108     -0.2442
    148  CE2       38.0050   40.3270   22.1860 C.ar  108  TRP108      0.0810
    149  CE3       37.2050   42.5670   21.6960 C.ar  108  TRP108      0.0012
    150  CZ2       36.7640   39.9290   22.6810 C.ar  108  TRP108      0.0191
    151  CZ3       35.9640   42.1580   22.1700 C.ar  108  TRP108      0.0001
    152  CH2       35.7430   40.8580   22.6650 C.ar  108  TRP108      0.0015
    153  N         43.4750   44.2470   21.5580 N.am  109  VAL109     -0.1977
    154  CA        44.6260   44.9500   21.0230 C.3   109  VAL109      0.1596
    155  C         44.7170   44.7150   19.5240 C.2   109  VAL109      0.2287
    156  O         44.9630   45.7210   18.8400 O.2   109  VAL109     -0.2864
    157  CB        45.8810   44.5000   21.7840 C.3   109  VAL109      0.0276
    158  CG1       47.0530   45.2860   21.2540 C.3   109  VAL109      0.0022
    159  CG2       45.7120   44.6400   23.2680 C.3   109  VAL109      0.0022
@<TRIPOS>BOND
     1     1     2    1
     2     2     3    1
     3     2     5    1
     4     3     4    2
     5     5     6    1
     6   156   155    2
     7     6     7    1
     8   155   154    1
     9     7     9   ar
    10     7     8   ar
    11   142   141    2
    12   143   144    1
    13   143   140    1
    14   154   153    1
    15   154   157    1
    16   141   153   am
    17   141   140    1
    18   158   157    1
    19   144   145   ar
    20   144   146   ar
    21    65    66    1
    22    65    64    1
    23   145   147   ar
    24   149   146   ar
    25   149   151   ar
    26   146   148   ar
    27   140   139    1
    28   157   159    1
    29    60    61    1
    30   147   148   ar
    31    66    68   am
    32    66    67    2
    33   151   152   ar
    34   148   150   ar
    35    64    61    1
    36   139   136   am
    37   152   150   ar
    38    61    62    1
    39   134   135    1
    40   129   128    2
    41    16    15    2
    42   136   135    1
    43   136   137    2
    44    15    14    1
    45    15    17   am
    46    14    11    1
    47    62    63    2
    48    62    69   am
    49   135   138    1
    50   128   127    1
    51    69    70    1
    52    76    74    1
    53    10    11    1
    54    11    12    1
    55    74    73    1
    56    59    57   ar
    57    56    57    1
    58    56    53    1
    59   127   130    1
    60   127   126    1
    61    55    54    2
    62   113   114    1
    63   113   112    1
    64    70    73    1
    65    70    71    1
    66    54    53    1
    67    57    58   ar
    68   116   115    1
    69   115   112    1
    70   115   117    1
    71   130   131    1
    72    73    75    1
    73   121   120    2
    74    12    13    2
    75    12    18   am
    76    53    52    1
    77   112   111    1
    78   131   132    2
    79   131   133   am
    80    18    19    1
    81    36    34   am
    82    71    72    2
    83    71    77   am
    84    21    20    2
    85   120   119    1
    86   118   119    1
    87    77    78    1
    88    34    35    2
    89    34    33    1
    90    20    19    1
    91    20    29   am
    92    19    22    1
    93   119   122    1
    94    81    78    1
    95    81    82    1
    96   122   123    1
    97    78    79    1
    98    22    23    1
    99    29    30    1
   100    84    82   am
   101    43    41    1
   102    30    33    1
   103    30    31    1
   104   105   103   ar
   105   105   106   ar
   106   103   102   ar
   107   108   106   ar
   108   108   110   ar
   109   106   104   ar
   110    82    83    2
   111   102   104   ar
   112   102   101    1
   113   110   109   ar
   114   104   107   ar
   115    27    26    1
   116    79    80    2
   117    37    31   am
   118    37    38    1
   119   123   124   ar
   120   123   125   ar
   121    31    32    2
   122   101    98    1
   123    23    24    1
   124   109   107   ar
   125    41    42    1
   126    41    38    1
   127    38    39    1
   128    26    25    2
   129    26    28    1
   130    24    25    1
   131    98    99    1
   132    98    97    1
   133    92    94   ar
   134    92    90   ar
   135    94    95   ar
   136   100    99    1
   137    50    49   ar
   138    97    87   am
   139    39    44   am
   140    39    40    2
   141    44    45    1
   142    51    49   ar
   143    49    48    1
   144    89    90    1
   145    89    86    1
   146    90    91   ar
   147    95    96    1
   148    95    93   ar
   149    87    86    1
   150    87    88    2
   151    48    45    1
   152    85    86    1
   153    45    46    1
   154    91    93   ar
   155    46    47    2
