@<TRIPOS>MOLECULE
tmp/1lmoA00.pdb
 133 131 0 0 0
SMALL
GASTEIGER

@<TRIPOS>ATOM
      1  N         46.0710   34.7160   27.5280 N.3    52  ASP52      -0.1239
      2  CA        45.0170   34.9450   26.5350 C.3    52  ASP52       0.1674
      3  C         44.6140   33.5630   25.9690 C.2    52  ASP52       0.2266
      4  O         45.4930   32.7720   25.6560 O.2    52  ASP52      -0.2867
      5  CB        45.3970   35.9090   25.4330 C.3    52  ASP52       0.1410
      6  CG        45.7900   37.2470   26.0880 C.2    52  ASP52       0.3668
      7  OD1       45.2510   37.7360   27.0810 O.co2  52  ASP52      -0.2456
      8  OD2       46.6990   37.8410   25.5050 O.co2  52  ASP52      -0.2456
      9  N         41.2110   35.2530   21.9210 N.3    57  GLN57      -0.1231
     10  CA        42.3010   35.5640   22.8740 C.3    57  GLN57       0.1698
     11  C         41.7760   36.3590   24.0730 C.2    57  GLN57       0.2592
     12  O         42.2320   37.4630   24.4040 O.2    57  GLN57      -0.2718
     13  CB        43.5010   36.2700   22.1720 C.3    57  GLN57       0.0381
     14  CG        44.1580   35.3110   21.1410 C.3    57  GLN57       0.0905
     15  CD        45.0230   34.3500   21.9310 C.2    57  GLN57       0.2608
     16  OE1       46.0760   34.7310   22.4240 O.2    57  GLN57      -0.2717
     17  NE2       44.5270   33.1350   22.0960 N.am   57  GLN57      -0.0878
     18  N         40.8010   35.8280   24.7820 N.am   58  ILE58      -0.1966
     19  CA        40.2010   36.4370   25.9990 C.3    58  ILE58       0.1727
     20  C         41.1580   36.2420   27.1830 C.2    58  ILE58       0.2616
     21  O         41.6720   35.1600   27.4730 O.2    58  ILE58      -0.2715
     22  CB        38.7410   35.9050   26.1940 C.3    58  ILE58       0.0290
     23  CG1       37.8920   36.5010   25.0210 C.3    58  ILE58       0.0022
     24  CG2       38.1710   36.1960   27.6070 C.3    58  ILE58       0.0023
     25  CD1       36.4920   35.8820   24.8220 C.3    58  ILE58       0.0001
     26  N         41.3530   37.3310   27.9120 N.am   59  ASN59      -0.1972
     27  CA        42.3020   37.4220   29.0220 C.3    59  ASN59       0.1688
     28  C         41.8160   36.9240   30.3680 C.2    59  ASN59       0.2292
     29  O         40.7030   37.2830   30.7920 O.2    59  ASN59      -0.2864
     30  CB        42.7170   38.9080   29.1070 C.3    59  ASN59       0.1181
     31  CG        43.8990   39.0530   30.0720 C.2    59  ASN59       0.2629
     32  OD1       43.7200   39.4350   31.2490 O.2    59  ASN59      -0.2716
     33  ND2       45.0550   38.6970   29.4930 N.am   59  ASN59      -0.0877
     34  N         40.6190   39.3340   33.7430 N.3    62  TYR62      -0.1227
     35  CA        39.2520   39.8420   33.9100 C.3    62  TYR62       0.1736
     36  C         38.0980   38.9410   33.5410 C.2    62  TYR62       0.2592
     37  O         37.0220   39.0970   34.1520 O.2    62  TYR62      -0.2718
     38  CB        39.0460   41.1200   33.0330 C.3    62  TYR62       0.0548
     39  CG        40.1180   42.1810   33.2680 C.ar   62  TYR62      -0.0200
     40  CD1       40.0030   43.0960   34.3130 C.ar   62  TYR62      -0.0009
     41  CD2       41.2590   42.2420   32.4540 C.ar   62  TYR62      -0.0009
     42  CE1       40.9880   44.0610   34.5620 C.ar   62  TYR62       0.0417
     43  CE2       42.2420   43.1940   32.6930 C.ar   62  TYR62       0.0417
     44  CZ        42.1010   44.1080   33.7390 C.ar   62  TYR62       0.1957
     45  OH        43.0610   45.0710   33.9730 O.3    62  TYR62      -0.2866
     46  N         38.2890   38.0750   32.5290 N.am   63  TRP63      -0.2029
     47  CA        37.0970   37.3510   32.0380 C.3    63  TRP63       0.1326
     48  C         36.9090   35.9070   32.4210 C.3    63  TRP63       0.2039
     49  O         35.7230   35.5170   32.4030 O.3    63  TRP63      -0.2185
     50  CB        37.1160   37.5150   30.4520 C.3    63  TRP63       0.0523
     51  CG        37.3240   38.9570   30.0540 C.ar   63  TRP63       0.0002
     52  CD1       38.4540   39.5780   29.5820 C.ar   63  TRP63       0.0946
     53  CD2       36.3030   39.9720   30.1930 C.ar   63  TRP63       0.0152
     54  NE1       38.2130   40.9150   29.3940 N.ar   63  TRP63      -0.2442
     55  CE2       36.9180   41.1790   29.7590 C.ar   63  TRP63       0.0810
     56  CE3       34.9730   39.9690   30.6470 C.ar   63  TRP63       0.0012
     57  CZ2       36.2130   42.3910   29.7760 C.ar   63  TRP63       0.0191
     58  CZ3       34.2790   41.1790   30.6430 C.ar   63  TRP63       0.0001
     59  CH2       34.8830   42.3700   30.2060 C.ar   63  TRP63       0.0015
     60  N         34.7480   37.5970   35.0510 N.3    75  VAL75      -0.1245
     61  CA        33.4460   38.2350   34.7060 C.3    75  VAL75       0.1561
     62  C         32.5810   37.3200   33.8280 C.2    75  VAL75       0.2260
     63  O         31.3340   37.2870   33.9780 O.2    75  VAL75      -0.2867
     64  CB        33.7170   39.6400   34.1350 C.3    75  VAL75       0.0252
     65  CG1       32.5050   40.2810   33.5000 C.3    75  VAL75       0.0019
     66  CG2       34.2810   40.5630   35.2130 C.3    75  VAL75       0.0019
     67  N         32.2460   40.6620   26.9040 N.3    98  VAL98      -0.1245
     68  CA        33.3890   41.5760   26.7820 C.3    98  VAL98       0.1561
     69  C         33.0230   42.8820   26.0270 C.2    98  VAL98       0.2260
     70  O         33.4060   43.9590   26.5750 O.2    98  VAL98      -0.2867
     71  CB        34.6220   40.9130   26.1010 C.3    98  VAL98       0.0252
     72  CG1       35.7680   41.9310   25.9240 C.3    98  VAL98       0.0019
     73  CG2       35.1370   39.6590   26.7730 C.3    98  VAL98       0.0019
     74  N         31.3590   46.1310   27.7030 N.3   101  ASP101     -0.1225
     75  CA        32.0620   47.0840   28.5730 C.3   101  ASP101      0.1790
     76  C         32.3090   48.3500   27.7410 C.2   101  ASP101      0.2440
     77  O         32.2620   48.3980   26.4990 O.2   101  ASP101     -0.2733
     78  CB        33.3140   46.4870   29.2030 C.3   101  ASP101      0.1423
     79  CG        33.0390   45.9700   30.6180 C.2   101  ASP101      0.3668
     80  OD1       31.8770   45.7160   30.9820 O.co2 101  ASP101     -0.2456
     81  OD2       34.0440   45.8200   31.3370 O.co2 101  ASP101     -0.2456
     82  N         32.5330   49.4180   28.4760 N.am  102  PRO102     -0.2718
     83  CA        32.7270   50.7430   27.8830 C.3   102  PRO102      0.1535
     84  C         33.6870   50.8080   26.7050 C.2   102  PRO102      0.2598
     85  O         33.3810   51.5360   25.7370 O.2   102  PRO102     -0.2715
     86  CB        33.1890   51.5790   29.0770 C.3   102  PRO102      0.0310
     87  CG        32.5020   50.9420   30.2550 C.3   102  PRO102      0.0237
     88  CD        32.6200   49.4560   29.9450 C.3   102  PRO102      0.0939
     89  N         34.7400   50.0360   26.7700 N.am  103  ASN103     -0.1973
     90  CA        35.7560   50.0870   25.7050 C.3   103  ASN103      0.1688
     91  C         35.2880   49.3780   24.4070 C.2   103  ASN103      0.2292
     92  O         35.9540   49.4470   23.3680 O.2   103  ASN103     -0.2864
     93  CB        37.0650   49.4680   26.1960 C.3   103  ASN103      0.1181
     94  CG        37.9250   50.4470   27.0160 C.2   103  ASN103      0.2629
     95  OD1       37.5150   51.5830   27.2620 O.2   103  ASN103     -0.2716
     96  ND2       39.1110   50.0720   27.4650 N.am  103  ASN103     -0.0877
     97  N         38.6260   46.5360   23.2030 N.3   107  ALA107     -0.1231
     98  CA        39.1630   45.6480   24.2570 C.3   107  ALA107      0.1694
     99  C         40.2380   44.7430   23.6210 C.2   107  ALA107      0.2592
    100  O         41.1460   44.2320   24.2890 O.2   107  ALA107     -0.2718
    101  CB        38.1280   44.7860   24.9820 C.3   107  ALA107      0.0304
    102  N         40.1150   44.5220   22.3070 N.am  108  TRP108     -0.1962
    103  CA        41.0500   43.6520   21.5900 C.3   108  TRP108      0.1771
    104  C         42.1770   44.4540   20.9510 C.2   108  TRP108      0.2616
    105  O         41.9420   45.2730   20.0310 O.2   108  TRP108     -0.2715
    106  CB        40.2690   42.8350   20.5500 C.3   108  TRP108      0.0590
    107  CG        39.5020   41.6690   21.1070 C.ar  108  TRP108      0.0006
    108  CD1       39.9730   40.3900   21.3130 C.ar  108  TRP108      0.0946
    109  CD2       38.1230   41.6480   21.5420 C.ar  108  TRP108      0.0152
    110  NE1       38.9580   39.6130   21.8500 N.ar  108  TRP108     -0.2442
    111  CE2       37.7950   40.3300   21.9860 C.ar  108  TRP108      0.0810
    112  CE3       37.1140   42.6230   21.5640 C.ar  108  TRP108      0.0012
    113  CZ2       36.5360   39.9480   22.4490 C.ar  108  TRP108      0.0191
    114  CZ3       35.8540   42.2430   22.0250 C.ar  108  TRP108      0.0001
    115  CH2       35.5590   40.9420   22.4710 C.ar  108  TRP108      0.0015
    116  N         43.3900   44.1840   21.4010 N.am  109  VAL109     -0.2030
    117  CA        44.5600   44.8950   20.8330 C.3   109  VAL109      0.1282
    118  C         44.6490   44.6530   19.3220 C.3   109  VAL109      0.2035
    119  O         44.9660   45.6500   18.6520 O.3   109  VAL109     -0.2185
    120  CB        45.9060   44.5290   21.5020 C.3   109  VAL109      0.0226
    121  CG1       47.1100   45.3040   20.8970 C.3   109  VAL109      0.0018
    122  CG2       45.8360   44.6920   23.0000 C.3   109  VAL109      0.0018
    123  N         42.3020   46.9350   17.4470 N.3   112  ARG112     -0.1245
    124  CA        42.8470   48.3290   17.4500 C.3   112  ARG112      0.1563
    125  C         43.9490   48.5030   16.4160 C.2   112  ARG112      0.2260
    126  O         43.9750   49.5020   15.6750 O.2   112  ARG112     -0.2867
    127  CB        43.3150   48.7470   18.8650 C.3   112  ARG112      0.0307
    128  CG        42.0770   48.9630   19.7470 C.3   112  ARG112      0.0489
    129  CD        42.3400   49.8360   20.9250 C.3   112  ARG112      0.2205
    130  NE        43.6600   49.7140   21.4960 N.pl3 112  ARG112     -0.0865
    131  CZ        44.0910   48.8200   22.3700 C.cat 112  ARG112      0.5346
    132  NH1       43.2870   47.8780   22.8560 N.pl3 112  ARG112      0.1354
    133  NH2       45.3390   48.8060   22.8160 N.pl3 112  ARG112      0.1354
@<TRIPOS>BOND
     1   126   125    2
     2   125   124    1
     3   123   124    1
     4   124   127    1
     5   119   118    1
     6   127   128    1
     7   118   117    1
     8   128   129    1
     9   105   104    2
    10   106   107    1
    11   106   103    1
    12   117   116    1
    13   117   120    1
    14   121   120    1
    15   129   130    1
    16   104   116   am
    17   104   103    1
    18   107   108   ar
    19   107   109   ar
    20    14    15    1
    21    14    13    1
    22   108   110   ar
    23   130   131    2
    24   120   122    1
    25   109   112   ar
    26   109   111   ar
    27   112   114   ar
    28   103   102    1
    29   110   111   ar
    30     9    10    1
    31    15    17   am
    32    15    16    2
    33   111   113   ar
    34   114   115   ar
    35    13    10    1
    36   102    99   am
    37   131   133    1
    38   131   132    1
    39   113   115   ar
    40    10    11    1
    41    97    98    1
    42    92    91    2
    43    99    98    1
    44    99   100    2
    45    11    12    2
    46    11    18   am
    47    98   101    1
    48    91    90    1
    49    18    19    1
    50    25    23    1
    51    23    22    1
    52     5     6    1
    53     5     2    1
    54     8     6   ar
    55     4     3    2
    56    90    93    1
    57    90    89    1
    58    85    84    2
    59    72    71    1
    60     3     2    1
    61    19    22    1
    62    19    20    1
    63    69    70    2
    64    69    68    1
    65     6     7   ar
    66    71    73    1
    67    71    68    1
    68    22    24    1
    69    93    94    1
    70    77    76    2
    71     2     1    1
    72    84    89   am
    73    84    83    1
    74    68    67    1
    75    94    95    2
    76    94    96   am
    77    20    21    2
    78    20    26   am
    79    74    75    1
    80    76    82   am
    81    76    75    1
    82    83    82    1
    83    83    86    1
    84    26    27    1
    85    82    88    1
    86    75    78    1
    87    27    30    1
    88    27    28    1
    89    86    87    1
    90    30    31    1
    91    78    79    1
    92    54    52   ar
    93    54    55   ar
    94    33    31   am
    95    52    51   ar
    96    55    57   ar
    97    55    53   ar
    98    57    59   ar
    99    88    87    1
   100    51    53   ar
   101    51    50    1
   102    31    32    2
   103    53    56   ar
   104    59    58   ar
   105    28    29    2
   106    50    47    1
   107    79    80   ar
   108    79    81   ar
   109    58    56   ar
   110    47    48    1
   111    47    46    1
   112    49    48    1
   113    41    43   ar
   114    41    39   ar
   115    46    36   am
   116    43    44   ar
   117    38    39    1
   118    38    35    1
   119    39    40   ar
   120    65    64    1
   121    36    35    1
   122    36    37    2
   123    44    45    1
   124    44    42   ar
   125    34    35    1
   126    62    63    2
   127    62    61    1
   128    64    61    1
   129    64    66    1
   130    40    42   ar
   131    61    60    1
