@<TRIPOS>MOLECULE
tmp/1lmpA00.pdb
 177 171 0 0 0
SMALL
GASTEIGER

@<TRIPOS>ATOM
      1  N         44.2540   37.8630   16.0830 N.3    35  GLU35      -0.1245
      2  CA        44.4480   37.3860   17.4540 C.3    35  GLU35       0.1567
      3  C         44.9000   35.9350   17.5270 C.2    35  GLU35       0.2260
      4  O         45.8320   35.6320   18.2880 O.2    35  GLU35      -0.2867
      5  CB        43.1660   37.5070   18.2990 C.3    35  GLU35       0.0388
      6  CG        42.6840   38.8760   18.7610 C.3    35  GLU35       0.1160
      7  CD        43.5880   39.5170   19.7960 C.2    35  GLU35       0.3649
      8  OE1       44.6030   39.0180   20.2550 O.co2  35  GLU35      -0.2457
      9  OE2       43.2000   40.6230   20.1760 O.co2  35  GLU35      -0.2457
     10  N         48.4170   32.3360   24.8990 N.3    44  ASN44      -0.1240
     11  CA        49.5240   33.2980   24.9590 C.3    44  ASN44       0.1653
     12  C         49.6350   33.8370   26.3820 C.2    44  ASN44       0.2266
     13  O         48.7080   34.4790   26.9020 O.2    44  ASN44      -0.2867
     14  CB        49.3200   34.3720   23.8870 C.3    44  ASN44       0.1155
     15  CG        50.3960   35.4520   23.9380 C.2    44  ASN44       0.2627
     16  OD1       51.5240   35.2450   23.4370 O.2    44  ASN44      -0.2716
     17  ND2       50.0770   36.5970   24.5590 N.am   44  ASN44      -0.0877
     18  N         51.0390   36.2570   29.3350 N.3    46  ASN46      -0.1240
     19  CA        51.5220   37.6530   29.4310 C.3    46  ASN46       0.1653
     20  C         52.4780   37.7970   30.6210 C.2    46  ASN46       0.2266
     21  O         52.5460   36.9290   31.5080 O.2    46  ASN46      -0.2867
     22  CB        50.3440   38.6070   29.5000 C.3    46  ASN46       0.1155
     23  CG        49.5910   38.6190   28.1750 C.2    46  ASN46       0.2627
     24  OD1       48.4080   38.2630   28.1700 O.2    46  ASN46      -0.2716
     25  ND2       50.1770   38.9630   27.0430 N.am   46  ASN46      -0.0877
     26  N         52.3600   39.9190   33.0040 N.3    48  ASP48      -0.1239
     27  CA        51.5350   40.1220   34.2090 C.3    48  ASP48       0.1674
     28  C         50.9440   38.8510   34.8420 C.2    48  ASP48       0.2266
     29  O         50.1760   38.9860   35.8370 O.2    48  ASP48      -0.2867
     30  CB        50.4360   41.1460   33.8370 C.3    48  ASP48       0.1410
     31  CG        49.3190   40.5370   33.0090 C.2    48  ASP48       0.3668
     32  OD1       49.3550   39.4020   32.4890 O.co2  48  ASP48      -0.2456
     33  OD2       48.3220   41.2900   32.9250 O.co2  48  ASP48      -0.2456
     34  N         45.9880   34.6780   27.5020 N.3    52  ASP52      -0.1239
     35  CA        44.9450   34.9180   26.4900 C.3    52  ASP52       0.1674
     36  C         44.5410   33.5400   25.9400 C.2    52  ASP52       0.2266
     37  O         45.3840   32.7120   25.6530 O.2    52  ASP52      -0.2867
     38  CB        45.3540   35.8880   25.3910 C.3    52  ASP52       0.1410
     39  CG        45.7770   37.2370   25.9890 C.2    52  ASP52       0.3668
     40  OD1       45.1960   37.7380   26.9660 O.co2  52  ASP52      -0.2456
     41  OD2       46.7200   37.7930   25.4230 O.co2  52  ASP52      -0.2456
     42  N         41.1850   35.1980   21.9170 N.3    57  GLN57      -0.1231
     43  CA        42.2490   35.5000   22.8720 C.3    57  GLN57       0.1698
     44  C         41.7130   36.3030   24.0580 C.2    57  GLN57       0.2592
     45  O         42.2370   37.3900   24.3530 O.2    57  GLN57      -0.2718
     46  CB        43.4300   36.2120   22.1610 C.3    57  GLN57       0.0381
     47  CG        44.1250   35.3020   21.1560 C.3    57  GLN57       0.0905
     48  CD        45.0080   34.3470   21.9160 C.2    57  GLN57       0.2608
     49  OE1       46.0230   34.7270   22.4320 O.2    57  GLN57      -0.2717
     50  NE2       44.5580   33.1070   22.0330 N.am   57  GLN57      -0.0878
     51  N         40.6860   35.7510   24.7000 N.am   58  ILE58      -0.1966
     52  CA        40.1440   36.4110   25.9200 C.3    58  ILE58       0.1727
     53  C         41.1050   36.2570   27.0960 C.2    58  ILE58       0.2616
     54  O         41.6410   35.1900   27.4280 O.2    58  ILE58      -0.2715
     55  CB        38.6910   35.8750   26.1190 C.3    58  ILE58       0.0290
     56  CG1       37.8410   36.5090   24.9720 C.3    58  ILE58       0.0022
     57  CG2       38.1830   36.1340   27.5630 C.3    58  ILE58       0.0023
     58  CD1       36.4760   35.8360   24.7530 C.3    58  ILE58       0.0001
     59  N         41.3630   37.3500   27.8180 N.am   59  ASN59      -0.1972
     60  CA        42.3100   37.4600   28.9330 C.3    59  ASN59       0.1688
     61  C         41.7900   36.9830   30.2770 C.2    59  ASN59       0.2292
     62  O         40.6680   37.3010   30.6900 O.2    59  ASN59      -0.2864
     63  CB        42.7570   38.9290   28.9820 C.3    59  ASN59       0.1181
     64  CG        43.8990   39.0670   29.9870 C.2    59  ASN59       0.2629
     65  OD1       43.6840   39.4240   31.1680 O.2    59  ASN59      -0.2716
     66  ND2       45.0820   38.7540   29.4640 N.am   59  ASN59      -0.0877
     67  N         42.8040   37.7660   33.3340 N.3    61  ARG61      -0.1231
     68  CA        42.7730   38.7040   34.4570 C.3    61  ARG61       0.1694
     69  C         41.3640   39.1940   34.7860 C.2    61  ARG61       0.2592
     70  O         40.9910   39.4480   35.9450 O.2    61  ARG61      -0.2718
     71  CB        43.6320   39.9270   34.1740 C.3    61  ARG61       0.0321
     72  CG        43.6850   40.6440   35.5440 C.3    61  ARG61       0.0489
     73  CD        45.1280   41.0100   35.7110 C.3    61  ARG61       0.2205
     74  NE        45.2000   42.4660   35.7330 N.pl3  61  ARG61      -0.0865
     75  CZ        44.9220   43.1710   36.8450 C.cat  61  ARG61       0.5346
     76  NH1       43.9930   42.7920   37.7260 N.pl3  61  ARG61       0.1354
     77  NH2       45.6390   44.2840   37.0490 N.pl3  61  ARG61       0.1354
     78  N         40.5510   39.3430   33.7280 N.am   62  TYR62      -0.1962
     79  CA        39.1700   39.7970   33.9140 C.3    62  TYR62       0.1771
     80  C         38.0330   38.8700   33.5540 C.2    62  TYR62       0.2616
     81  O         36.9470   38.9690   34.1880 O.2    62  TYR62      -0.2715
     82  CB        38.8740   41.0620   33.0350 C.3    62  TYR62       0.0574
     83  CG        39.8160   42.1740   33.4380 C.ar   62  TYR62      -0.0198
     84  CD1       39.6020   43.0230   34.5170 C.ar   62  TYR62      -0.0009
     85  CD2       40.9860   42.3060   32.6750 C.ar   62  TYR62      -0.0009
     86  CE1       40.5480   44.0050   34.8510 C.ar   62  TYR62       0.0417
     87  CE2       41.9230   43.2880   33.0080 C.ar   62  TYR62       0.0417
     88  CZ        41.7060   44.1460   34.0930 C.ar   62  TYR62       0.1957
     89  OH        42.6570   45.1160   34.3690 O.3    62  TYR62      -0.2866
     90  N         38.2480   38.0460   32.5220 N.am   63  TRP63      -0.2027
     91  CA        37.0650   37.3020   32.0250 C.3    63  TRP63       0.1326
     92  C         36.9100   35.8520   32.3620 C.3    63  TRP63       0.2039
     93  O         35.7200   35.4800   32.3120 O.3    63  TRP63      -0.2185
     94  CB        37.0810   37.4980   30.4580 C.3    63  TRP63       0.0523
     95  CG        37.2690   38.9420   30.0490 C.ar   63  TRP63       0.0002
     96  CD1       38.3480   39.5820   29.5150 C.ar   63  TRP63       0.0946
     97  CD2       36.2320   39.9370   30.1890 C.ar   63  TRP63       0.0152
     98  NE1       38.0470   40.9070   29.3220 N.ar   63  TRP63      -0.2442
     99  CE2       36.7600   41.1500   29.7240 C.ar   63  TRP63       0.0810
    100  CE3       34.9190   39.9120   30.6870 C.ar   63  TRP63       0.0012
    101  CZ2       36.0140   42.3310   29.7330 C.ar   63  TRP63       0.0191
    102  CZ3       34.1870   41.0800   30.6770 C.ar   63  TRP63       0.0001
    103  CH2       34.7140   42.2800   30.2000 C.ar   63  TRP63       0.0015
    104  N         34.6170   37.5540   35.0580 N.3    75  VAL75      -0.1245
    105  CA        33.3350   38.2060   34.7030 C.3    75  VAL75       0.1561
    106  C         32.4950   37.2840   33.8290 C.2    75  VAL75       0.2260
    107  O         31.2560   37.3000   33.9830 O.2    75  VAL75      -0.2867
    108  CB        33.6820   39.5830   34.1140 C.3    75  VAL75       0.0252
    109  CG1       32.5330   40.2160   33.3660 C.3    75  VAL75       0.0019
    110  CG2       34.1950   40.4970   35.2140 C.3    75  VAL75       0.0019
    111  N         32.2220   40.7280   26.8730 N.3    98  VAL98      -0.1301
    112  CA        33.3730   41.6060   26.7680 C.3    98  VAL98       0.1246
    113  C         32.9860   42.8890   26.0040 C.3    98  VAL98       0.2009
    114  O         33.3980   43.9460   26.5470 O.3    98  VAL98      -0.2188
    115  CB        34.5840   40.9150   26.0980 C.3    98  VAL98       0.0202
    116  CG1       35.7170   41.9200   25.8630 C.3    98  VAL98       0.0016
    117  CG2       35.0790   39.6790   26.8320 C.3    98  VAL98       0.0016
    118  N         31.3330   46.1280   27.6940 N.3   101  ASP101     -0.1225
    119  CA        31.9880   47.0870   28.5640 C.3   101  ASP101      0.1790
    120  C         32.2280   48.3410   27.7070 C.2   101  ASP101      0.2440
    121  O         32.1690   48.3040   26.4790 O.2   101  ASP101     -0.2733
    122  CB        33.2820   46.5900   29.2130 C.3   101  ASP101      0.1423
    123  CG        33.0440   45.9950   30.5900 C.2   101  ASP101      0.3668
    124  OD1       31.8740   45.7800   30.9790 O.co2 101  ASP101     -0.2456
    125  OD2       34.0600   45.7210   31.2450 O.co2 101  ASP101     -0.2456
    126  N         32.4990   49.4130   28.4360 N.am  102  PRO102     -0.2718
    127  CA        32.7790   50.7360   27.8920 C.3   102  PRO102      0.1535
    128  C         33.7000   50.8140   26.6940 C.2   102  PRO102      0.2598
    129  O         33.3180   51.5170   25.7310 O.2   102  PRO102     -0.2715
    130  CB        33.3850   51.4600   29.1090 C.3   102  PRO102      0.0310
    131  CG        32.4860   50.9200   30.2120 C.3   102  PRO102      0.0237
    132  CD        32.5680   49.4350   29.9200 C.3   102  PRO102      0.0939
    133  N         34.7640   50.0390   26.7260 N.am  103  ASN103     -0.1973
    134  CA        35.7550   50.0810   25.6340 C.3   103  ASN103      0.1688
    135  C         35.2740   49.3620   24.3500 C.2   103  ASN103      0.2292
    136  O         35.9100   49.4500   23.2940 O.2   103  ASN103     -0.2864
    137  CB        37.0680   49.4570   26.0940 C.3   103  ASN103      0.1181
    138  CG        37.8770   50.4020   26.9840 C.2   103  ASN103      0.2629
    139  OD1       37.4730   51.5490   27.1860 O.2   103  ASN103     -0.2716
    140  ND2       39.0010   49.9900   27.5380 N.am  103  ASN103     -0.0877
    141  N         38.6520   46.5130   23.2510 N.3   107  ALA107     -0.1231
    142  CA        39.1730   45.6190   24.2930 C.3   107  ALA107      0.1694
    143  C         40.2530   44.7100   23.6970 C.2   107  ALA107      0.2592
    144  O         41.1680   44.2010   24.3440 O.2   107  ALA107     -0.2718
    145  CB        38.1200   44.7340   24.9280 C.3   107  ALA107      0.0304
    146  N         40.1020   44.4550   22.4070 N.am  108  TRP108     -0.1962
    147  CA        41.0240   43.6040   21.6660 C.3   108  TRP108      0.1771
    148  C         42.1850   44.3900   21.0500 C.2   108  TRP108      0.2619
    149  O         41.9400   45.1920   20.1250 O.2   108  TRP108     -0.2715
    150  CB        40.2500   42.8380   20.5650 C.3   108  TRP108      0.0590
    151  CG        39.5080   41.6610   21.1140 C.ar  108  TRP108      0.0006
    152  CD1       39.9970   40.4020   21.3690 C.ar  108  TRP108      0.0946
    153  CD2       38.1330   41.6590   21.5260 C.ar  108  TRP108      0.0152
    154  NE1       38.9770   39.6400   21.9070 N.ar  108  TRP108     -0.2442
    155  CE2       37.8160   40.3520   22.0060 C.ar  108  TRP108      0.0810
    156  CE3       37.1280   42.6210   21.5040 C.ar  108  TRP108      0.0012
    157  CZ2       36.5520   39.9820   22.4650 C.ar  108  TRP108      0.0191
    158  CZ3       35.8540   42.2590   21.9570 C.ar  108  TRP108      0.0001
    159  CH2       35.5670   40.9650   22.4380 C.ar  108  TRP108      0.0015
    160  N         43.3930   44.1380   21.4900 N.am  109  VAL109     -0.1977
    161  CA        44.5640   44.8190   20.9250 C.3   109  VAL109      0.1596
    162  C         44.6230   44.6100   19.4040 C.2   109  VAL109      0.2287
    163  O         44.8640   45.6050   18.6770 O.2   109  VAL109     -0.2864
    164  CB        45.8720   44.3740   21.6330 C.3   109  VAL109      0.0276
    165  CG1       47.0550   45.2240   21.1190 C.3   109  VAL109      0.0022
    166  CG2       45.7610   44.3800   23.1260 C.3   109  VAL109      0.0022
    167  N         42.3000   46.9390   17.3850 N.3   112  ARG112     -0.1245
    168  CA        42.8180   48.3180   17.4340 C.3   112  ARG112      0.1563
    169  C         43.9100   48.5330   16.4070 C.2   112  ARG112      0.2260
    170  O         43.9250   49.5040   15.6480 O.2   112  ARG112     -0.2867
    171  CB        43.3570   48.7100   18.8410 C.3   112  ARG112      0.0307
    172  CG        42.1330   48.8570   19.7720 C.3   112  ARG112      0.0489
    173  CD        42.3300   49.8130   20.9060 C.3   112  ARG112      0.2205
    174  NE        43.6180   49.6810   21.5190 N.pl3 112  ARG112     -0.0865
    175  CZ        44.0540   48.8170   22.4120 C.cat 112  ARG112      0.5346
    176  NH1       43.2360   47.9410   22.9920 N.pl3 112  ARG112      0.1354
    177  NH2       45.3130   48.7800   22.8030 N.pl3 112  ARG112      0.1354
@<TRIPOS>BOND
     1   170   169    2
     2     1     2    1
     3   169   168    1
     4   167   168    1
     5   168   171    1
     6     2     3    1
     7     2     5    1
     8     3     4    2
     9     5     6    1
    10   163   162    2
    11     6     7    1
    12   171   172    1
    13   162   161    1
    14   172   173    1
    15     7     9   ar
    16     7     8   ar
    17   149   148    2
    18   150   151    1
    19   150   147    1
    20   173   174    1
    21   161   160    1
    22   161   164    1
    23   148   160   am
    24   148   147    1
    25   151   152   ar
    26   151   153   ar
    27   165   164    1
    28    47    48    1
    29    47    46    1
    30   152   154   ar
    31   156   153   ar
    32   156   158   ar
    33   174   175    2
    34   153   155   ar
    35   164   166    1
    36   147   146    1
    37   154   155   ar
    38    48    50   am
    39    48    49    2
    40    42    43    1
    41   158   159   ar
    42   155   157   ar
    43    46    43    1
    44   146   143   am
    45   175   177    1
    46   175   176    1
    47   159   157   ar
    48    43    44    1
    49   141   142    1
    50   136   135    2
    51    16    15    2
    52   143   142    1
    53   143   144    2
    54    14    15    1
    55    14    11    1
    56    15    17   am
    57    44    45    2
    58    44    51   am
    59   142   145    1
    60   135   134    1
    61    51    52    1
    62    58    56    1
    63    10    11    1
    64    11    12    1
    65    56    55    1
    66    38    39    1
    67    38    35    1
    68    41    39   ar
    69   134   137    1
    70   134   133    1
    71    37    36    2
    72   129   128    2
    73   116   115    1
    74    52    55    1
    75    52    53    1
    76    36    35    1
    77    39    40   ar
    78   113   114    1
    79   113   112    1
    80   137   138    1
    81   115   112    1
    82   115   117    1
    83    55    57    1
    84    12    13    2
    85   121   120    2
    86    35    34    1
    87   128   133   am
    88   128   127    1
    89   112   111    1
    90   138   139    2
    91   138   140   am
    92    25    23   am
    93    53    54    2
    94    53    59   am
    95   118   119    1
    96   120   126   am
    97   120   119    1
    98    59    60    1
    99   127   126    1
   100   127   130    1
   101    24    23    2
   102    23    22    1
   103   126   132    1
   104   119   122    1
   105    60    63    1
   106    60    61    1
   107    63    64    1
   108   130   131    1
   109   122   123    1
   110    98    96   ar
   111    98    99   ar
   112    18    19    1
   113    19    22    1
   114    19    20    1
   115    66    64   am
   116    96    95   ar
   117    99   101   ar
   118    99    97   ar
   119   101   103   ar
   120   132   131    1
   121    64    65    2
   122    95    97   ar
   123    95    94    1
   124    97   100   ar
   125   103   102   ar
   126    61    62    2
   127    94    91    1
   128   123   124   ar
   129   123   125   ar
   130    20    21    2
   131   102   100   ar
   132    91    92    1
   133    91    90    1
   134    93    92    1
   135    32    31   ar
   136    90    80   am
   137    85    87   ar
   138    85    83   ar
   139    33    31   ar
   140    26    27    1
   141    87    88   ar
   142    31    30    1
   143    82    83    1
   144    82    79    1
   145    67    68    1
   146   109   108    1
   147    83    84   ar
   148    80    79    1
   149    80    81    2
   150    78    79    1
   151    78    69   am
   152   106   107    2
   153   106   105    1
   154    30    27    1
   155    88    89    1
   156    88    86   ar
   157   108   105    1
   158   108   110    1
   159    71    68    1
   160    71    72    1
   161    27    28    1
   162    68    69    1
   163    84    86   ar
   164   105   104    1
   165    69    70    2
   166    28    29    2
   167    72    73    1
   168    73    74    1
   169    74    75    2
   170    75    77    1
   171    75    76    1
