@<TRIPOS>MOLECULE
tmp/1lmqA00.pdb
 189 183 0 0 0
SMALL
GASTEIGER

@<TRIPOS>ATOM
      1  N         44.3000   37.9750   16.0560 N.3    35  GLU35      -0.1245
      2  CA        44.5150   37.5080   17.4390 C.3    35  GLU35       0.1567
      3  C         45.0050   36.0690   17.5300 C.2    35  GLU35       0.2260
      4  O         45.9590   35.7950   18.2880 O.2    35  GLU35      -0.2867
      5  CB        43.2240   37.6230   18.2660 C.3    35  GLU35       0.0388
      6  CG        42.8000   39.0080   18.7550 C.3    35  GLU35       0.1160
      7  CD        43.7130   39.6160   19.7950 C.2    35  GLU35       0.3649
      8  OE1       44.7150   39.0640   20.2210 O.co2  35  GLU35      -0.2457
      9  OE2       43.3420   40.7420   20.1700 O.co2  35  GLU35      -0.2457
     10  N         48.5120   32.3990   24.8820 N.3    44  ASN44      -0.1240
     11  CA        49.6200   33.3500   24.9460 C.3    44  ASN44       0.1653
     12  C         49.7500   33.8670   26.3750 C.2    44  ASN44       0.2266
     13  O         48.8230   34.5080   26.8840 O.2    44  ASN44      -0.2867
     14  CB        49.3920   34.4620   23.9250 C.3    44  ASN44       0.1155
     15  CG        50.3840   35.6060   24.0250 C.2    44  ASN44       0.2627
     16  OD1       51.5270   35.3980   23.5720 O.2    44  ASN44      -0.2716
     17  ND2       50.0420   36.7670   24.5890 N.am   44  ASN44      -0.0877
     18  N         51.1720   36.3500   29.3140 N.3    46  ASN46      -0.1240
     19  CA        51.6240   37.7570   29.4030 C.3    46  ASN46       0.1653
     20  C         52.6170   37.9280   30.5600 C.2    46  ASN46       0.2266
     21  O         52.6780   37.0700   31.4460 O.2    46  ASN46      -0.2867
     22  CB        50.4320   38.7030   29.5100 C.3    46  ASN46       0.1155
     23  CG        49.6060   38.6220   28.2320 C.2    46  ASN46       0.2627
     24  OD1       48.4100   38.3080   28.2840 O.2    46  ASN46      -0.2716
     25  ND2       50.2200   38.8500   27.0790 N.am   46  ASN46      -0.0877
     26  N         46.1370   34.7310   27.4780 N.3    52  ASP52      -0.1239
     27  CA        45.0730   34.9790   26.4930 C.3    52  ASP52       0.1674
     28  C         44.6600   33.6070   25.9300 C.2    52  ASP52       0.2266
     29  O         45.4900   32.7880   25.5630 O.2    52  ASP52      -0.2867
     30  CB        45.4360   35.9250   25.3650 C.3    52  ASP52       0.1410
     31  CG        45.9830   37.2400   25.9470 C.2    52  ASP52       0.3668
     32  OD1       45.4760   37.7660   26.9350 O.co2  52  ASP52      -0.2456
     33  OD2       46.9440   37.7050   25.3310 O.co2  52  ASP52      -0.2456
     34  N         41.2930   35.2790   21.8790 N.3    57  GLN57      -0.1231
     35  CA        42.3740   35.6200   22.8210 C.3    57  GLN57       0.1698
     36  C         41.8670   36.4470   24.0110 C.2    57  GLN57       0.2592
     37  O         42.3520   37.5440   24.3080 O.2    57  GLN57      -0.2718
     38  CB        43.5310   36.3190   22.0650 C.3    57  GLN57       0.0381
     39  CG        44.2260   35.3490   21.0820 C.3    57  GLN57       0.0905
     40  CD        45.1230   34.4290   21.8720 C.2    57  GLN57       0.2608
     41  OE1       46.1810   34.7800   22.3540 O.2    57  GLN57      -0.2717
     42  NE2       44.6200   33.2090   22.0810 N.am   57  GLN57      -0.0878
     43  N         40.8730   35.9090   24.6890 N.am   58  ILE58      -0.1966
     44  CA        40.2860   36.5190   25.9040 C.3    58  ILE58       0.1727
     45  C         41.2380   36.3070   27.0840 C.2    58  ILE58       0.2616
     46  O         41.7490   35.2320   27.4270 O.2    58  ILE58      -0.2715
     47  CB        38.8340   35.9890   26.1310 C.3    58  ILE58       0.0290
     48  CG1       37.9550   36.5450   24.9670 C.3    58  ILE58       0.0022
     49  CG2       38.2730   36.3110   27.5460 C.3    58  ILE58       0.0023
     50  CD1       36.5720   35.8680   24.8500 C.3    58  ILE58       0.0001
     51  N         41.4860   37.4180   27.7850 N.am   59  ASN59      -0.1972
     52  CA        42.4520   37.5330   28.8860 C.3    59  ASN59       0.1688
     53  C         41.9070   37.1200   30.2450 C.2    59  ASN59       0.2292
     54  O         40.7940   37.4830   30.6530 O.2    59  ASN59      -0.2864
     55  CB        43.0120   38.9820   28.8550 C.3    59  ASN59       0.1181
     56  CG        44.1310   39.1420   29.8870 C.2    59  ASN59       0.2629
     57  OD1       43.8900   39.5260   31.0540 O.2    59  ASN59      -0.2716
     58  ND2       45.3310   38.8090   29.4020 N.am   59  ASN59      -0.0877
     59  N         42.9500   37.8980   33.2170 N.3    61  ARG61      -0.1231
     60  CA        42.9170   38.8330   34.3530 C.3    61  ARG61       0.1694
     61  C         41.4880   39.2710   34.6850 C.2    61  ARG61       0.2592
     62  O         41.1020   39.4830   35.8410 O.2    61  ARG61      -0.2718
     63  CB        43.7180   40.0980   34.1140 C.3    61  ARG61       0.0321
     64  CG        43.7140   40.8030   35.4970 C.3    61  ARG61       0.0489
     65  CD        45.1390   41.1750   35.7590 C.3    61  ARG61       0.2205
     66  NE        45.2310   42.6070   35.4690 N.pl3  61  ARG61      -0.0865
     67  CZ        44.8270   43.4690   36.4230 C.cat  61  ARG61       0.5346
     68  NH1       44.1880   43.0860   37.5290 N.pl3  61  ARG61       0.1354
     69  NH2       45.1150   44.7520   36.2070 N.pl3  61  ARG61       0.1354
     70  N         40.6720   39.4310   33.6250 N.am   62  TYR62      -0.1962
     71  CA        39.2890   39.8470   33.8550 C.3    62  TYR62       0.1771
     72  C         38.1570   38.9110   33.5060 C.2    62  TYR62       0.2616
     73  O         37.0970   39.0200   34.1590 O.2    62  TYR62      -0.2715
     74  CB        38.9750   41.1260   33.0000 C.3    62  TYR62       0.0574
     75  CG        40.0070   42.2080   33.2800 C.ar   62  TYR62      -0.0198
     76  CD1       39.8570   43.1120   34.3220 C.ar   62  TYR62      -0.0009
     77  CD2       41.1490   42.2780   32.4720 C.ar   62  TYR62      -0.0009
     78  CE1       40.8380   44.0830   34.5720 C.ar   62  TYR62       0.0417
     79  CE2       42.1280   43.2380   32.7150 C.ar   62  TYR62       0.0417
     80  CZ        41.9650   44.1440   33.7640 C.ar   62  TYR62       0.1957
     81  OH        42.9200   45.1090   33.9950 O.3    62  TYR62      -0.2866
     82  N         38.3390   38.0870   32.4730 N.am   63  TRP63      -0.2027
     83  CA        37.1620   37.3530   31.9800 C.3    63  TRP63       0.1326
     84  C         36.9900   35.9090   32.3470 C.3    63  TRP63       0.2039
     85  O         35.7980   35.5390   32.2780 O.3    63  TRP63      -0.2185
     86  CB        37.1820   37.5040   30.4030 C.3    63  TRP63       0.0523
     87  CG        37.3430   38.9460   30.0140 C.ar   63  TRP63       0.0002
     88  CD1       38.4590   39.5700   29.5140 C.ar   63  TRP63       0.0946
     89  CD2       36.3220   39.9570   30.1430 C.ar   63  TRP63       0.0152
     90  NE1       38.2070   40.9050   29.2950 N.ar   63  TRP63      -0.2442
     91  CE2       36.9070   41.1580   29.6790 C.ar   63  TRP63       0.0810
     92  CE3       34.9990   39.9590   30.6060 C.ar   63  TRP63       0.0012
     93  CZ2       36.2030   42.3760   29.6790 C.ar   63  TRP63       0.0191
     94  CZ3       34.2980   41.1710   30.5870 C.ar   63  TRP63       0.0001
     95  CH2       34.8910   42.3550   30.1220 C.ar   63  TRP63       0.0015
     96  N         39.3450   38.4350   38.0340 N.3    73  LYS73      -0.1245
     97  CA        37.9180   38.7370   38.2870 C.3    73  LYS73       0.1561
     98  C         36.8640   37.8140   37.6820 C.2    73  LYS73       0.2260
     99  O         35.6800   37.8540   38.1350 O.2    73  LYS73      -0.2867
    100  CB        37.6470   40.1720   37.7890 C.3    73  LYS73       0.0271
    101  CG        37.9910   41.2370   38.8110 C.3    73  LYS73       0.0035
    102  CD        39.4400   41.6310   38.9540 C.3    73  LYS73       0.0206
    103  CE        39.8010   41.9880   40.3860 C.3    73  LYS73       0.1093
    104  NZ        38.6340   42.1650   41.2880 N.3    73  LYS73      -0.1314
    105  N         34.7510   37.6380   35.0670 N.3    75  VAL75      -0.1245
    106  CA        33.4620   38.2610   34.6910 C.3    75  VAL75       0.1561
    107  C         32.6080   37.3460   33.8180 C.2    75  VAL75       0.2260
    108  O         31.3650   37.3700   33.9910 O.2    75  VAL75      -0.2867
    109  CB        33.7300   39.6300   34.0420 C.3    75  VAL75       0.0252
    110  CG1       32.5160   40.2460   33.3970 C.3    75  VAL75       0.0019
    111  CG2       34.3240   40.5530   35.0950 C.3    75  VAL75       0.0019
    112  N         29.8830   39.4710   26.0720 N.3    97  ARG97      -0.1231
    113  CA        29.9670   40.1460   27.3700 C.3    97  ARG97       0.1694
    114  C         31.1320   41.1560   27.3340 C.2    97  ARG97       0.2591
    115  O         30.9610   42.3200   27.7480 O.2    97  ARG97      -0.2718
    116  CB        30.1230   39.1940   28.5570 C.3    97  ARG97       0.0321
    117  CG        30.5000   39.8830   29.8720 C.3    97  ARG97       0.0489
    118  CD        29.3610   40.7690   30.2980 C.3    97  ARG97       0.2205
    119  NE        29.6640   41.5610   31.4880 N.pl3  97  ARG97      -0.0865
    120  CZ        30.3630   42.7010   31.4590 C.cat  97  ARG97       0.5346
    121  NH1       30.8370   43.2710   30.3640 N.pl3  97  ARG97       0.1354
    122  NH2       30.5810   43.3170   32.6280 N.pl3  97  ARG97       0.1354
    123  N         32.3000   40.7490   26.8360 N.am   98  VAL98      -0.1980
    124  CA        33.4280   41.6830   26.7510 C.3    98  VAL98       0.1595
    125  C         33.0560   42.9690   25.9930 C.2    98  VAL98       0.2287
    126  O         33.4370   44.0460   26.5200 O.2    98  VAL98      -0.2864
    127  CB        34.6570   41.0270   26.0820 C.3    98  VAL98       0.0276
    128  CG1       35.7900   42.0420   25.8850 C.3    98  VAL98       0.0022
    129  CG2       35.1090   39.7790   26.8200 C.3    98  VAL98       0.0022
    130  N         31.3110   46.2450   27.6370 N.3   101  ASP101     -0.1225
    131  CA        32.0200   47.2000   28.5190 C.3   101  ASP101      0.1790
    132  C         32.3030   48.4720   27.7020 C.2   101  ASP101      0.2440
    133  O         32.2340   48.4910   26.4610 O.2   101  ASP101     -0.2733
    134  CB        33.2520   46.5760   29.1750 C.3   101  ASP101      0.1423
    135  CG        33.0090   46.0570   30.5850 C.2   101  ASP101      0.3668
    136  OD1       31.8430   45.9080   31.0060 O.co2 101  ASP101     -0.2456
    137  OD2       34.0110   45.7900   31.2640 O.co2 101  ASP101     -0.2456
    138  N         32.5770   49.5430   28.4340 N.am  102  PRO102     -0.2718
    139  CA        32.8090   50.8610   27.8330 C.3   102  PRO102      0.1535
    140  C         33.7400   50.9200   26.6400 C.2   102  PRO102      0.2598
    141  O         33.3660   51.6260   25.6740 O.2   102  PRO102     -0.2715
    142  CB        33.3140   51.6690   29.0390 C.3   102  PRO102      0.0310
    143  CG        32.4500   51.1010   30.1540 C.3   102  PRO102      0.0237
    144  CD        32.6520   49.6070   29.9090 C.3   102  PRO102      0.0939
    145  N         34.8150   50.1590   26.6620 N.am  103  ASN103     -0.1973
    146  CA        35.8110   50.2000   25.5640 C.3   103  ASN103      0.1688
    147  C         35.3360   49.4750   24.2850 C.2   103  ASN103      0.2292
    148  O         35.9710   49.5610   23.2280 O.2   103  ASN103     -0.2864
    149  CB        37.1220   49.5720   26.0180 C.3   103  ASN103      0.1181
    150  CG        37.9240   50.5070   26.9210 C.2   103  ASN103      0.2629
    151  OD1       37.5350   51.6610   27.1020 O.2   103  ASN103     -0.2716
    152  ND2       39.0230   50.0770   27.5070 N.am  103  ASN103     -0.0877
    153  N         38.6770   46.6380   23.1950 N.3   107  ALA107     -0.1231
    154  CA        39.2440   45.7680   24.2340 C.3   107  ALA107      0.1694
    155  C         40.3230   44.8400   23.6510 C.2   107  ALA107      0.2592
    156  O         41.2140   44.3350   24.3460 O.2   107  ALA107     -0.2718
    157  CB        38.1860   44.9140   24.9380 C.3   107  ALA107      0.0304
    158  N         40.1940   44.5740   22.3340 N.am  108  TRP108     -0.1962
    159  CA        41.1090   43.6960   21.6100 C.3   108  TRP108      0.1771
    160  C         42.2530   44.4950   20.9570 C.2   108  TRP108      0.2619
    161  O         42.0190   45.3160   20.0540 O.2   108  TRP108     -0.2715
    162  CB        40.3720   42.8810   20.5420 C.3   108  TRP108      0.0590
    163  CG        39.5970   41.7320   21.1050 C.ar  108  TRP108      0.0006
    164  CD1       40.0810   40.4670   21.3410 C.ar  108  TRP108      0.0946
    165  CD2       38.2240   41.7320   21.5340 C.ar  108  TRP108      0.0152
    166  NE1       39.0670   39.6950   21.8800 N.ar  108  TRP108     -0.2442
    167  CE2       37.9130   40.4240   21.9910 C.ar  108  TRP108      0.0810
    168  CE3       37.2110   42.6860   21.5290 C.ar  108  TRP108      0.0012
    169  CZ2       36.6470   40.0450   22.4420 C.ar  108  TRP108      0.0191
    170  CZ3       35.9460   42.3160   21.9750 C.ar  108  TRP108      0.0001
    171  CH2       35.6520   41.0180   22.4460 C.ar  108  TRP108      0.0015
    172  N         43.4560   44.2060   21.4130 N.am  109  VAL109     -0.1977
    173  CA        44.6380   44.8990   20.8760 C.3   109  VAL109      0.1596
    174  C         44.7310   44.6880   19.3630 C.2   109  VAL109      0.2287
    175  O         45.0100   45.6690   18.6510 O.2   109  VAL109     -0.2864
    176  CB        45.9400   44.4690   21.5790 C.3   109  VAL109      0.0276
    177  CG1       47.1280   45.3300   21.0850 C.3   109  VAL109      0.0022
    178  CG2       45.8420   44.4760   23.0820 C.3   109  VAL109      0.0022
    179  N         42.3730   47.0190   17.4490 N.3   112  ARG112     -0.1245
    180  CA        42.8860   48.4220   17.4370 C.3   112  ARG112      0.1563
    181  C         43.9960   48.6080   16.4090 C.2   112  ARG112      0.2260
    182  O         44.0440   49.6190   15.7040 O.2   112  ARG112     -0.2867
    183  CB        43.3800   48.9020   18.8200 C.3   112  ARG112      0.0307
    184  CG        42.1860   48.9820   19.7830 C.3   112  ARG112      0.0489
    185  CD        42.4330   49.9030   20.9290 C.3   112  ARG112      0.2205
    186  NE        43.7600   49.7970   21.5040 N.pl3 112  ARG112     -0.0865
    187  CZ        44.1550   48.8980   22.4060 C.cat 112  ARG112      0.5346
    188  NH1       43.2900   48.0130   22.9160 N.pl3 112  ARG112      0.1354
    189  NH2       45.4160   48.8420   22.8380 N.pl3 112  ARG112      0.1354
@<TRIPOS>BOND
     1   182   181    2
     2     1     2    1
     3   181   180    1
     4   180   179    1
     5   180   183    1
     6     2     3    1
     7     2     5    1
     8     3     4    2
     9     5     6    1
    10   175   174    2
    11     6     7    1
    12   183   184    1
    13   174   173    1
    14   184   185    1
    15     7     9   ar
    16     7     8   ar
    17   161   160    2
    18   162   163    1
    19   162   159    1
    20   173   172    1
    21   173   176    1
    22   185   186    1
    23   160   172   am
    24   160   159    1
    25    39    40    1
    26    39    38    1
    27   177   176    1
    28   163   164   ar
    29   163   165   ar
    30   164   166   ar
    31   186   187    2
    32   168   165   ar
    33   168   170   ar
    34   165   167   ar
    35   176   178    1
    36   159   158    1
    37    40    42   am
    38    40    41    2
    39    34    35    1
    40   166   167   ar
    41   170   171   ar
    42   167   169   ar
    43    38    35    1
    44   158   155   am
    45   187   189    1
    46   187   188    1
    47   169   171   ar
    48    35    36    1
    49   153   154    1
    50   148   147    2
    51    16    15    2
    52   155   154    1
    53   155   156    2
    54    14    15    1
    55    14    11    1
    56    36    37    2
    57    36    43   am
    58    15    17   am
    59   154   157    1
    60   147   146    1
    61    43    44    1
    62    50    48    1
    63    10    11    1
    64    11    12    1
    65    48    47    1
    66    33    31   ar
    67    30    31    1
    68    30    27    1
    69    29    28    2
    70   146   149    1
    71   146   145    1
    72   141   140    2
    73   128   127    1
    74    44    47    1
    75    44    45    1
    76    28    27    1
    77    31    32   ar
    78   125   126    2
    79   125   124    1
    80   149   150    1
    81   112   113    1
    82   127   124    1
    83   127   129    1
    84    47    49    1
    85    12    13    2
    86   133   132    2
    87    27    26    1
    88   140   145   am
    89   140   139    1
    90   124   123    1
    91   123   114   am
    92   150   151    2
    93   150   152   am
    94    25    23   am
    95    45    46    2
    96    45    51   am
    97   114   113    1
    98   114   115    2
    99   113   116    1
   100   130   131    1
   101   132   138   am
   102   132   131    1
   103    51    52    1
   104   139   138    1
   105   139   142    1
   106    23    24    2
   107    23    22    1
   108   138   144    1
   109   131   134    1
   110   116   117    1
   111    55    52    1
   112    55    56    1
   113    52    53    1
   114   142   143    1
   115   134   135    1
   116    90    88   ar
   117    90    91   ar
   118    18    19    1
   119    58    56   am
   120    19    22    1
   121    19    20    1
   122    88    87   ar
   123    93    91   ar
   124    93    95   ar
   125    91    89   ar
   126   117   118    1
   127    56    57    2
   128   144   143    1
   129    87    89   ar
   130    87    86    1
   131    95    94   ar
   132    89    92   ar
   133    53    54    2
   134   118   119    1
   135   121   120    1
   136    86    83    1
   137    20    21    2
   138   135   136   ar
   139   135   137   ar
   140    94    92   ar
   141   120   119    2
   142   120   122    1
   143    83    84    1
   144    83    82    1
   145    85    84    1
   146    77    79   ar
   147    77    75   ar
   148    82    72   am
   149    79    80   ar
   150    74    75    1
   151    74    71    1
   152    59    60    1
   153    75    76   ar
   154   110   109    1
   155    72    71    1
   156    72    73    2
   157    70    71    1
   158    70    61   am
   159    80    81    1
   160    80    78   ar
   161   107   108    2
   162   107   106    1
   163   109   106    1
   164   109   111    1
   165    63    60    1
   166    63    64    1
   167    76    78   ar
   168    60    61    1
   169    61    62    2
   170   106   105    1
   171    66    65    1
   172    66    67    2
   173    64    65    1
   174    69    67    1
   175    67    68    1
   176    98    99    2
   177    98    97    1
   178   100    97    1
   179   100   101    1
   180    96    97    1
   181   101   102    1
   182   102   103    1
   183   103   104    1
