@<TRIPOS>MOLECULE
tmp/1lmtA00.pdb
 157 153 0 0 0
SMALL
GASTEIGER

@<TRIPOS>ATOM
      1  N          7.1420   -3.4740   32.7700 N.3    49  ASP49      -0.1239
      2  CA         7.3440   -3.1480   34.1880 C.3    49  ASP49       0.1674
      3  C          6.2690   -2.2710   34.8100 C.2    49  ASP49       0.2266
      4  O          6.4400   -1.8610   35.9670 O.2    49  ASP49      -0.2867
      5  CB         8.7740   -2.6530   34.3690 C.3    49  ASP49       0.1410
      6  CG         8.9440   -1.1730   34.1130 C.2    49  ASP49       0.3668
      7  OD1        8.0670   -0.5140   33.5650 O.co2  49  ASP49      -0.2456
      8  OD2        9.9930   -0.6750   34.5730 O.co2  49  ASP49      -0.2456
      9  N          5.8580    6.5000   30.6290 N.3    53  ASP53      -0.1239
     10  CA         6.7270    7.6250   30.2130 C.3    53  ASP53       0.1674
     11  C          5.7800    8.7850   29.7620 C.2    53  ASP53       0.2266
     12  O          4.9460    8.5710   28.8950 O.2    53  ASP53      -0.2867
     13  CB         7.6960    7.3400   29.0910 C.3    53  ASP53       0.1410
     14  CG         8.5590    6.1000   29.4720 C.2    53  ASP53       0.3668
     15  OD1        8.9470    6.0040   30.6200 O.co2  53  ASP53      -0.2456
     16  OD2        8.6510    5.3200   28.5360 O.co2  53  ASP53      -0.2456
     17  N          9.6260   12.3240   27.8970 N.3    58  GLN58      -0.1231
     18  CA         9.3220   10.9140   28.2540 C.3    58  GLN58       0.1698
     19  C          9.8560   10.5200   29.6140 C.2    58  GLN58       0.2592
     20  O         10.6610    9.5400   29.7900 O.2    58  GLN58      -0.2718
     21  CB         9.7250    9.9470   27.1370 C.3    58  GLN58       0.0381
     22  CG         8.9430   10.1710   25.8390 C.3    58  GLN58       0.0905
     23  CD         7.5300    9.6260   25.9810 C.2    58  GLN58       0.2608
     24  OE1        7.3430    8.4100   25.8010 O.2    58  GLN58      -0.2717
     25  NE2        6.5730   10.4630   26.3340 N.am   58  GLN58      -0.0878
     26  N          9.5000   11.3020   30.6150 N.am   59  ILE59      -0.1966
     27  CA         9.8960   11.1160   32.0090 C.3    59  ILE59       0.1727
     28  C          9.1210    9.9350   32.6110 C.2    59  ILE59       0.2616
     29  O          7.8710    9.9000   32.4890 O.2    59  ILE59      -0.2715
     30  CB         9.7620   12.4540   32.7950 C.3    59  ILE59       0.0290
     31  CG1       10.8560   13.4460   32.2510 C.3    59  ILE59       0.0022
     32  CG2        9.8450   12.2420   34.2960 C.3    59  ILE59       0.0023
     33  CD1       10.6380   14.8630   32.8630 C.3    59  ILE59       0.0001
     34  N          9.8530    9.0510   33.2470 N.am   60  ASN60      -0.1972
     35  CA         9.2160    7.8240   33.7860 C.3    60  ASN60       0.1688
     36  C          8.6310    7.9650   35.1670 C.2    60  ASN60       0.2292
     37  O          9.1640    8.5470   36.0990 O.2    60  ASN60      -0.2864
     38  CB        10.2200    6.6830   33.6180 C.3    60  ASN60       0.1181
     39  CG         9.6640    5.3540   34.0930 C.2    60  ASN60       0.2629
     40  OD1        9.7460    5.0750   35.2950 O.2    60  ASN60      -0.2716
     41  ND2        9.1530    4.6070   33.1120 N.am   60  ASN60      -0.0877
     42  N          8.1620    5.7400   37.5970 N.3    62  ARG62      -0.1231
     43  CA         8.6360    4.9990   38.7900 C.3    62  ARG62       0.1694
     44  C          9.3140    5.8720   39.8150 C.2    62  ARG62       0.2592
     45  O          9.2000    5.6650   41.0590 O.2    62  ARG62      -0.2718
     46  CB         9.4700    3.7940   38.3550 C.3    62  ARG62       0.0321
     47  CG        10.1020    3.0240   39.5110 C.3    62  ARG62       0.0489
     48  CD        10.5070    1.6380   39.0900 C.3    62  ARG62       0.2205
     49  NE         9.2870    0.8170   39.0280 N.pl3  62  ARG62      -0.0865
     50  CZ         8.8070    0.2710   37.9130 C.cat  62  ARG62       0.5346
     51  NH1        9.4890    0.3820   36.7650 N.pl3  62  ARG62       0.1354
     52  NH2        7.6170   -0.3330   37.9370 N.pl3  62  ARG62       0.1354
     53  N         10.0570    6.8880   39.3480 N.am   63  TYR63      -0.1962
     54  CA        10.7220    7.7620   40.3240 C.3    63  TYR63       0.1771
     55  C         10.4010    9.2390   40.2880 C.2    63  TYR63       0.2619
     56  O         10.6820    9.9120   41.2860 O.2    63  TYR63      -0.2715
     57  CB        12.2810    7.7440   39.9620 C.3    63  TYR63       0.0574
     58  CG        12.8750    6.3670   40.1550 C.ar   63  TYR63      -0.0198
     59  CD1       13.2970    6.0190   41.4250 C.ar   63  TYR63      -0.0009
     60  CD2       12.9960    5.4700   39.0990 C.ar   63  TYR63      -0.0009
     61  CE1       13.8380    4.7420   41.6590 C.ar   63  TYR63       0.0417
     62  CE2       13.5220    4.1930   39.3100 C.ar   63  TYR63       0.0417
     63  CZ        13.9310    3.8540   40.5920 C.ar   63  TYR63       0.1957
     64  OH        14.4970    2.6370   40.8850 O.3    63  TYR63      -0.2866
     65  N          9.8720    9.7040   39.1590 N.am   64  TRP64      -0.1974
     66  CA         9.7350   11.1650   38.9990 C.3    64  TRP64       0.1640
     67  C          8.4370   11.8700   39.1330 C.2    64  TRP64       0.2290
     68  O          8.4470   13.0780   39.4180 O.2    64  TRP64      -0.2864
     69  CB        10.4040   11.5170   37.6410 C.3    64  TRP64       0.0576
     70  CG        11.7880   10.9830   37.4950 C.ar   64  TRP64       0.0006
     71  CD1       12.1630   10.0490   36.5970 C.ar   64  TRP64       0.0946
     72  CD2       12.9560   11.3490   38.2480 C.ar   64  TRP64       0.0152
     73  NE1       13.5380    9.7700   36.7720 N.ar   64  TRP64      -0.2442
     74  CE2       14.0110   10.5540   37.7780 C.ar   64  TRP64       0.0810
     75  CE3       13.1590   12.2090   39.3290 C.ar   64  TRP64       0.0012
     76  CZ2       15.3100   10.6440   38.2790 C.ar   64  TRP64       0.0191
     77  CZ3       14.4600   12.2890   39.8520 C.ar   64  TRP64       0.0001
     78  CH2       15.4980   11.5360   39.3230 C.ar   64  TRP64       0.0015
     79  N         10.9810    9.6830   47.1870 N.3    79  SER79      -0.1217
     80  CA        11.6230    8.7880   46.2330 C.3    79  SER79       0.1889
     81  C         10.7790    8.2800   45.0870 C.2    79  SER79       0.2288
     82  O         11.3710    7.9050   44.0500 O.2    79  SER79      -0.2866
     83  CB        12.3660    7.6490   46.9470 C.3    79  SER79       0.2089
     84  OG        11.4350    6.6750   47.3660 O.3    79  SER79      -0.2183
     85  N          9.9250   12.3030   42.7360 N.3    82  ALA82      -0.1245
     86  CA        11.0090   13.2760   43.0180 C.3    82  ALA82       0.1562
     87  C         10.7680   14.6450   42.4490 C.2    82  ALA82       0.2260
     88  O         11.3270   15.6080   43.0470 O.2    82  ALA82      -0.2867
     89  CB        12.3250   12.6110   42.6300 C.3    82  ALA82       0.0290
     90  N         15.8700   15.5910   37.2810 N.3   105  VAL105     -0.1245
     91  CA        16.3740   14.2820   36.8210 C.3   105  VAL105      0.1561
     92  C         17.9280   14.2750   36.7620 C.2   105  VAL105      0.2260
     93  O         18.5940   13.3290   37.2360 O.2   105  VAL105     -0.2867
     94  CB        15.8240   13.8320   35.4560 C.3   105  VAL105      0.0252
     95  CG1       16.5840   12.5880   34.9590 C.3   105  VAL105      0.0019
     96  CG2       14.3070   13.6290   35.5190 C.3   105  VAL105      0.0019
     97  N         20.6060   13.8770   39.6960 N.3   108  ASP108     -0.1225
     98  CA        21.0300   12.5350   40.1630 C.3   108  ASP108      0.1790
     99  C         22.3240   12.1960   39.4220 C.2   108  ASP108      0.2440
    100  O         22.6200   12.7500   38.3550 O.2   108  ASP108     -0.2733
    101  CB        19.9120   11.5130   40.0150 C.3   108  ASP108      0.1423
    102  CG        19.0560   11.3680   41.2500 C.2   108  ASP108      0.3668
    103  OD1       19.1740   12.1970   42.1820 O.co2 108  ASP108     -0.2456
    104  OD2       18.2700   10.4010   41.3180 O.co2 108  ASP108     -0.2456
    105  N         23.0910   11.2430   39.9560 N.am  109  PRO109     -0.2718
    106  CA        24.3970   10.8680   39.3680 C.3   109  PRO109      0.1535
    107  C         24.5100   10.5370   37.9060 C.2   109  PRO109      0.2598
    108  O         25.5140   10.8870   37.2460 O.2   109  PRO109     -0.2715
    109  CB        24.8510    9.6800   40.2250 C.3   109  PRO109      0.0310
    110  CG        24.1030    9.7920   41.5020 C.3   109  PRO109      0.0237
    111  CD        22.8040   10.5500   41.2220 C.3   109  PRO109      0.0939
    112  N         23.5670    9.7930   37.3520 N.am  110  GLN110     -0.1978
    113  CA        23.5960    9.4110   35.9450 C.3   110  GLN110      0.1601
    114  C         23.5100   10.6510   35.0150 C.2   110  GLN110      0.2287
    115  O         23.9030   10.5150   33.8550 O.2   110  GLN110     -0.2864
    116  CB        22.4020    8.5860   35.4950 C.3   110  GLN110      0.0394
    117  CG        22.0810    7.3000   36.1890 C.3   110  GLN110      0.0908
    118  CD        21.0490    6.5770   35.3160 C.2   110  GLN110      0.2608
    119  OE1       19.8540    6.6710   35.5450 O.2   110  GLN110     -0.2717
    120  NE2       21.6300    5.9210   34.3180 N.am  110  GLN110     -0.0878
    121  N         20.2470    9.2140   32.1320 N.3   114  ALA114     -0.1231
    122  CA        18.9510    8.7310   32.6250 C.3   114  ALA114      0.1694
    123  C         18.0320    8.3470   31.4790 C.2   114  ALA114      0.2592
    124  O         17.0910    7.5440   31.6420 O.2   114  ALA114     -0.2718
    125  CB        18.3130    9.7460   33.5640 C.3   114  ALA114      0.0304
    126  N         18.2770    8.9070   30.2990 N.am  115  TRP115     -0.1962
    127  CA        17.4420    8.6090   29.1370 C.3   115  TRP115      0.1771
    128  C         18.1280    7.5970   28.2370 C.2   115  TRP115      0.2619
    129  O         19.1800    7.9600   27.7080 O.2   115  TRP115     -0.2715
    130  CB        17.1000    9.8850   28.3930 C.3   115  TRP115      0.0590
    131  CG        16.1000   10.7900   29.0260 C.ar  115  TRP115      0.0006
    132  CD1       14.7430   10.7850   28.8170 C.ar  115  TRP115      0.0946
    133  CD2       16.3410   11.8570   29.9410 C.ar  115  TRP115      0.0152
    134  NE1       14.1560   11.7770   29.5590 N.ar  115  TRP115     -0.2442
    135  CE2       15.0950   12.4490   30.2720 C.ar  115  TRP115      0.0810
    136  CE3       17.5130   12.3740   30.5220 C.ar  115  TRP115      0.0012
    137  CZ2       15.0130   13.5170   31.1490 C.ar  115  TRP115      0.0191
    138  CZ3       17.4070   13.4260   31.4040 C.ar  115  TRP115      0.0001
    139  CH2       16.1620   14.0320   31.7110 C.ar  115  TRP115      0.0015
    140  N         17.5360    6.4070   28.0440 N.am  116  VAL116     -0.1977
    141  CA        18.1940    5.4280   27.1460 C.3   116  VAL116      0.1596
    142  C         18.2970    6.0070   25.7370 C.2   116  VAL116      0.2287
    143  O         19.3770    5.8310   25.1150 O.2   116  VAL116     -0.2864
    144  CB        17.6200    3.9930   27.2070 C.3   116  VAL116      0.0276
    145  CG1       16.8930    3.7110   28.5200 C.3   116  VAL116      0.0022
    146  CG2       16.7660    3.5580   26.0480 C.3   116  VAL116      0.0022
    147  N         21.4560    7.8980   25.1200 N.3   119  ARG119     -0.1245
    148  CA        22.6550    7.0230   24.9730 C.3   119  ARG119      0.1563
    149  C         22.7400    6.5350   23.5350 C.2   119  ARG119      0.2260
    150  O         23.7730    6.6770   22.9050 O.2   119  ARG119     -0.2867
    151  CB        22.6210    5.9180   26.0110 C.3   119  ARG119      0.0307
    152  CG        22.6890    6.3660   27.4790 C.3   119  ARG119      0.0489
    153  CD        22.6640    5.1620   28.3600 C.3   119  ARG119      0.2205
    154  NE        22.3710    5.3280   29.7590 N.pl3 119  ARG119     -0.0865
    155  CZ        21.9710    4.3150   30.5500 C.cat 119  ARG119      0.5346
    156  NH1       21.8200    3.0800   30.0500 N.pl3 119  ARG119      0.1354
    157  NH2       21.7470    4.5430   31.8460 N.pl3 119  ARG119      0.1354
@<TRIPOS>BOND
     1   150   149    2
     2   149   148    1
     3   148   147    1
     4   148   151    1
     5   143   142    2
     6   142   141    1
     7    24    23    2
     8    22    23    1
     9    22    21    1
    10    23    25   am
    11   151   152    1
    12   146   144    1
    13    21    18    1
    14   141   144    1
    15   141   140    1
    16   144   145    1
    17   152   153    1
    18   129   128    2
    19    17    18    1
    20   140   128   am
    21   128   127    1
    22    18    19    1
    23   153   154    1
    24   130   131    1
    25   130   127    1
    26    16    14   ar
    27   132   131   ar
    28   132   134   ar
    29    12    11    2
    30   131   133   ar
    31    13    14    1
    32    13    10    1
    33   127   126    1
    34    14    15   ar
    35   134   135   ar
    36    19    20    2
    37    19    26   am
    38   154   155    2
    39    11    10    1
    40   133   135   ar
    41   133   136   ar
    42   156   155    1
    43    10     9    1
    44   135   137   ar
    45   126   123   am
    46   136   138   ar
    47   155   157    1
    48    26    27    1
    49   137   139   ar
    50   138   139   ar
    51   123   124    2
    52   123   122    1
    53    27    28    1
    54    27    30    1
    55   121   122    1
    56    31    30    1
    57    31    33    1
    58    29    28    2
    59    28    34   am
    60   122   125    1
    61     1     2    1
    62    30    32    1
    63    41    39   am
    64    34    35    1
    65     7     6   ar
    66    38    35    1
    67    38    39    1
    68    35    36    1
    69   115   114    2
    70    39    40    2
    71     6     5    1
    72     6     8   ar
    73     2     5    1
    74     2     3    1
    75   120   118   am
    76     3     4    2
    77    95    94    1
    78   114   113    1
    79    36    37    2
    80   118   119    2
    81   118   117    1
    82    94    96    1
    83    94    91    1
    84   116   113    1
    85   116   117    1
    86   113   112    1
    87    71    73   ar
    88    71    70   ar
    89    92    91    1
    90    92    93    2
    91    51    50    1
    92    73    74   ar
    93    91    90    1
    94   108   107    2
    95   112   107   am
    96    70    69    1
    97    70    72   ar
    98    42    43    1
    99    69    66    1
   100    74    72   ar
   101    74    76   ar
   102   107   106    1
   103    50    52    1
   104    50    49    2
   105    72    75   ar
   106    76    78   ar
   107    46    43    1
   108    46    47    1
   109   100    99    2
   110    43    44    1
   111    66    67    1
   112    66    65    1
   113    49    48    1
   114    48    47    1
   115    60    62   ar
   116    60    58   ar
   117    67    68    2
   118    65    55   am
   119    62    63   ar
   120    78    77   ar
   121    75    77   ar
   122    53    44   am
   123    53    54    1
   124   106   105    1
   125   106   109    1
   126    99   105   am
   127    99    98    1
   128    97    98    1
   129    44    45    2
   130   105   111    1
   131    57    58    1
   132    57    54    1
   133   101    98    1
   134   101   102    1
   135    58    59   ar
   136   109   110    1
   137    55    54    1
   138    55    56    2
   139    63    64    1
   140    63    61   ar
   141   111   110    1
   142   102   104   ar
   143   102   103   ar
   144    59    61   ar
   145    87    86    1
   146    87    88    2
   147    89    86    1
   148    85    86    1
   149    82    81    2
   150    81    80    1
   151    80    83    1
   152    80    79    1
   153    83    84    1
