@<TRIPOS>MOLECULE
tmp/1lmwD01.pdb
 158 155 0 0 0
SMALL
GASTEIGER

@<TRIPOS>ATOM
      1  N        114.0360  129.0360   -1.9850 N.3    31  CYS31      -0.1235
      2  CA       115.0580  128.3460   -2.7620 C.3    31  CYS31       0.1677
      3  C        115.2810  126.8960   -2.2950 C.2    31  CYS31       0.2270
      4  O        114.5300  126.3640   -1.4510 O.2    31  CYS31      -0.2867
      5  CB       116.3720  129.1180   -2.6500 C.3    31  CYS31       0.0956
      6  SG       116.3560  130.7820   -3.4000 S.3    31  CYS31      -0.0801
      7  N        121.0330  135.4550   -2.0710 N.3    46  HIS46      -0.1241
      8  CA       120.0930  136.2880   -2.8080 C.3    46  HIS46       0.1621
      9  C        118.6320  135.8650   -2.6250 C.2    46  HIS46       0.2264
     10  O        117.7160  136.5000   -3.1570 O.2    46  HIS46      -0.2867
     11  CB       120.4630  136.3720   -4.2900 C.3    46  HIS46       0.0745
     12  CG       120.1010  135.1580   -5.0910 C.ar   46  HIS46       0.0817
     13  ND1      120.9300  134.0760   -5.2630 N.ar   46  HIS46      -0.2268
     14  CD2      118.8450  134.7230   -5.3700 C.ar   46  HIS46       0.1154
     15  CE1      120.2150  133.0320   -5.6410 C.ar   46  HIS46       0.1986
     16  NE2      118.9460  133.3950   -5.7150 N.ar   46  HIS46      -0.2212
     17  N        124.3250  143.9780  -11.6530 N.3    91  THR91      -0.1203
     18  CA       123.2380  143.7550  -12.6040 C.3    91  THR91       0.1994
     19  C        123.0750  142.2710  -12.9150 C.2    91  THR91       0.2617
     20  O        121.9520  141.7460  -12.9290 O.2    91  THR91      -0.2717
     21  CB       123.4860  144.5440  -13.9720 C.3    91  THR91       0.1784
     22  OG1      123.0460  143.7620  -15.1020 O.3    91  THR91      -0.2211
     23  CG2      124.9760  144.9070  -14.1700 C.3    91  THR91       0.0376
     24  N        124.2100  141.5910  -13.0760 N.am   92  LEU92      -0.1979
     25  CA       124.2370  140.1860  -13.4690 C.3    92  LEU92       0.1596
     26  C        124.7170  139.2150  -12.3990 C.2    92  LEU92       0.2287
     27  O        124.0170  138.2620  -12.0340 O.2    92  LEU92      -0.2864
     28  CB       125.1510  140.0460  -14.7000 C.3    92  LEU92       0.0297
     29  CG       124.7280  139.1030  -15.8290 C.3    92  LEU92       0.0022
     30  CD1      125.9280  138.8640  -16.7590 C.3    92  LEU92       0.0001
     31  CD2      124.1910  137.7980  -15.2490 C.3    92  LEU92       0.0001
     32  N        126.7340  137.7050   -8.8210 N.3    94  HIS94      -0.1241
     33  CA       126.4600  137.5800   -7.3910 C.3    94  HIS94       0.1621
     34  C        127.6670  136.9410   -6.7000 C.2    94  HIS94       0.2264
     35  O        127.8830  135.7280   -6.7670 O.2    94  HIS94      -0.2867
     36  CB       125.1960  136.7550   -7.1540 C.3    94  HIS94       0.0745
     37  CG       123.9270  137.4590   -7.5270 C.ar   94  HIS94       0.0817
     38  ND1      123.0200  137.9000   -6.5840 N.ar   94  HIS94      -0.2268
     39  CD2      123.3860  137.7480   -8.7370 C.ar   94  HIS94       0.1154
     40  CE1      121.9740  138.4260   -7.1940 C.ar   94  HIS94       0.1986
     41  NE2      122.1710  138.3460   -8.5010 N.ar   94  HIS94      -0.2212
     42  N        112.3960  129.9030  -18.7000 N.3   145  SER145     -0.1217
     43  CA       112.5660  131.2670  -18.1600 C.3   145  SER145      0.1889
     44  C        111.3930  132.2360  -18.3510 C.2   145  SER145      0.2288
     45  O        111.3320  133.2700  -17.6810 O.2   145  SER145     -0.2866
     46  CB       113.8680  131.9130  -18.6640 C.3   145  SER145      0.2089
     47  OG       113.8800  132.1010  -20.0750 O.3   145  SER145     -0.2183
     48  N        119.7980  123.4080  -18.3680 N.3   192  ASP192     -0.1225
     49  CA       120.4520  124.4760  -17.5890 C.3   192  ASP192      0.1805
     50  C        119.5980  124.6190  -16.3210 C.2   192  ASP192      0.2598
     51  O        118.4950  124.0620  -16.2530 O.2   192  ASP192     -0.2718
     52  CB       120.3920  125.8060  -18.3740 C.3   192  ASP192      0.1424
     53  CG       121.3380  126.9060  -17.8290 C.2   192  ASP192      0.3668
     54  OD1      121.6460  126.9520  -16.6100 O.co2 192  ASP192     -0.2456
     55  OD2      121.7590  127.7540  -18.6550 O.co2 192  ASP192     -0.2456
     56  N        120.0910  125.3260  -15.3060 N.am  193  SER193     -0.1938
     57  CA       119.2820  125.5290  -14.1000 C.3   193  SER193      0.2055
     58  C        118.4210  126.7540  -14.3990 C.2   193  SER193      0.2643
     59  O        118.3540  127.2060  -15.5500 O.2   193  SER193     -0.2714
     60  CB       120.1680  125.8250  -12.8910 C.3   193  SER193      0.2130
     61  OG       121.5000  125.4400  -13.1460 O.3   193  SER193     -0.2179
     62  N        117.7870  127.3060  -13.3680 N.am  194  CYS194     -0.1953
     63  CA       116.9770  128.4960  -13.5520 C.3   194  CYS194      0.1843
     64  C        116.3860  129.0370  -12.2720 C.2   194  CYS194      0.2625
     65  O        116.7590  128.6210  -11.1510 O.2   194  CYS194     -0.2714
     66  CB       115.8990  128.2350  -14.5820 C.3   194  CYS194      0.0997
     67  SG       115.2120  129.7540  -15.2770 S.3   194  CYS194     -0.0797
     68  N        115.5100  130.0250  -12.4380 N.am  195  GLN195     -0.1963
     69  CA       114.8750  130.6440  -11.2900 C.3   195  GLN195      0.1733
     70  C        114.1160  129.6060  -10.4960 C.2   195  GLN195      0.2616
     71  O        113.3980  128.7890  -11.0700 O.2   195  GLN195     -0.2715
     72  CB       113.9430  131.7850  -11.6970 C.3   195  GLN195      0.0408
     73  CG       114.6430  133.0470  -12.1520 C.3   195  GLN195      0.0908
     74  CD       115.1180  132.9530  -13.5930 C.2   195  GLN195      0.2608
     75  OE1      114.2980  132.8820  -14.5430 O.2   195  GLN195     -0.2717
     76  NE2      116.4500  132.9660  -13.7780 N.am  195  GLN195     -0.0878
     77  N        114.3040  129.6410   -9.1760 N.am  196  GLY196     -0.1955
     78  CA       113.6400  128.7050   -8.2850 C.3   196  GLY196      0.1869
     79  C        114.5460  127.5510   -7.9210 C.2   196  GLY196      0.2309
     80  O        114.3120  126.8580   -6.9150 O.2   196  GLY196     -0.2863
     81  N        117.9630  128.0080   -7.5430 N.3   198  SER198     -0.1217
     82  CA       118.9760  128.6170   -6.6720 C.3   198  SER198      0.1889
     83  C        118.9200  128.0680   -5.2870 C.2   198  SER198      0.2288
     84  O        117.8380  127.8820   -4.7500 O.2   198  SER198     -0.2866
     85  CB       118.7570  130.1170   -6.5730 C.3   198  SER198      0.2089
     86  OG       118.9000  130.7210   -7.8620 O.3   198  SER198     -0.2183
     87  N        123.7860  126.6580   -6.7510 N.3   216  VAL216     -0.1231
     88  CA       123.3310  127.5100   -7.8730 C.3   216  VAL216      0.1692
     89  C        123.1400  128.9790   -7.4710 C.2   216  VAL216      0.2593
     90  O        122.6640  129.2780   -6.3720 O.2   216  VAL216     -0.2718
     91  CB       122.0690  126.9880   -8.5850 C.3   216  VAL216      0.0266
     92  CG1      121.8770  127.7520   -9.9010 C.3   216  VAL216      0.0020
     93  CG2      122.1870  125.4800   -8.8390 C.3   216  VAL216      0.0020
     94  N        123.5320  129.8910   -8.3630 N.am  217  SER217     -0.1938
     95  CA       123.4510  131.3090   -8.0590 C.3   217  SER217      0.2055
     96  C        122.9740  132.2250   -9.1700 C.2   217  SER217      0.2643
     97  O        122.1780  133.1300   -8.8940 O.2   217  SER217     -0.2714
     98  CB       124.7970  131.8060   -7.5120 C.3   217  SER217      0.2130
     99  OG       124.8530  133.2220   -7.4410 O.3   217  SER217     -0.2179
    100  N        123.4580  132.0420  -10.4020 N.am  218  TRP218     -0.1959
    101  CA       123.0160  132.9340  -11.4710 C.3   218  TRP218      0.1771
    102  C        123.3390  132.5250  -12.8490 C.2   218  TRP218      0.2620
    103  O        123.9890  131.5300  -13.0700 O.2   218  TRP218     -0.2715
    104  CB       123.5310  134.3650  -11.2800 C.3   218  TRP218      0.0590
    105  CG       125.0470  134.5990  -11.4510 C.ar  218  TRP218      0.0006
    106  CD1      125.9710  134.7770  -10.4400 C.ar  218  TRP218      0.0946
    107  CD2      125.7480  134.8900  -12.6800 C.ar  218  TRP218      0.0152
    108  NE1      127.1760  135.1880  -10.9620 N.ar  218  TRP218     -0.2442
    109  CE2      127.0700  135.2700  -12.3300 C.ar  218  TRP218      0.0810
    110  CE3      125.3880  134.8720  -14.0410 C.ar  218  TRP218      0.0012
    111  CZ2      128.0300  135.6370  -13.2960 C.ar  218  TRP218      0.0191
    112  CZ3      126.3490  135.2300  -15.0060 C.ar  218  TRP218      0.0001
    113  CH2      127.6550  135.6100  -14.6190 C.ar  218  TRP218      0.0015
    114  N        122.9330  133.3690  -13.7810 N.am  219  GLY219     -0.1940
    115  CA       123.1730  133.1030  -15.1850 C.3   219  GLY219      0.2014
    116  C        122.3510  134.0930  -15.9900 C.2   219  GLY219      0.2639
    117  O        121.3410  134.6010  -15.4930 O.2   219  GLY219     -0.2714
    118  N        122.8300  134.4440  -17.1840 N.am  220  ARG220     -0.1963
    119  CA       122.1020  135.3650  -18.0450 C.3   220  ARG220      0.1729
    120  C        121.2080  134.4960  -18.8870 C.2   220  ARG220      0.2617
    121  O        121.6440  133.8420  -19.8490 O.2   220  ARG220     -0.2715
    122  CB       123.0210  136.2170  -18.9310 C.3   220  ARG220      0.0348
    123  CG       122.7300  137.7280  -18.8330 C.3   220  ARG220      0.0492
    124  CD       121.2220  138.0820  -18.9530 C.3   220  ARG220      0.2205
    125  NE       120.6020  137.6000  -20.1990 N.pl3 220  ARG220     -0.0865
    126  CZ       119.3960  137.9560  -20.6580 C.cat 220  ARG220      0.5346
    127  NH1      118.6280  138.8110  -19.9900 N.pl3 220  ARG220      0.1354
    128  NH2      118.9600  137.4610  -21.8110 N.pl3 220  ARG220      0.1354
    129  N        119.9470  134.4930  -18.4860 N.am  221  GLY221     -0.1940
    130  CA       118.9510  133.6920  -19.1520 C.3   221  GLY221      0.2014
    131  C        118.8190  132.3870  -18.4000 C.2   221  GLY221      0.2639
    132  O        119.1620  132.2780  -17.2140 O.2   221  GLY221     -0.2714
    133  N        118.2510  131.4180  -19.1020 N.am  222  CYS222     -0.1967
    134  CA       118.0460  130.0690  -18.6230 C.3   222  CYS222      0.1712
    135  C        118.2350  129.2720  -19.9000 C.2   222  CYS222      0.2296
    136  O        117.5160  129.4840  -20.8760 O.2   222  CYS222     -0.2864
    137  CB       116.6580  129.9380  -18.0090 C.3   222  CYS222      0.0983
    138  SG       116.6970  130.6450  -16.3310 S.3   222  CYS222     -0.0798
    139  N        125.9060  131.0260  -22.9990 N.3   227  LYS227     -0.1231
    140  CA       125.5340  131.5110  -21.6750 C.3   227  LYS227      0.1678
    141  C        125.3620  130.4260  -20.5890 C.2   227  LYS227      0.2434
    142  O        124.2750  129.8780  -20.3700 O.2   227  LYS227     -0.2733
    143  CB       124.2920  132.4140  -21.7750 C.3   227  LYS227      0.0284
    144  CG       124.4810  133.6340  -22.6800 C.3   227  LYS227      0.0035
    145  CD       125.6030  134.5400  -22.1570 C.3   227  LYS227      0.0206
    146  CE       126.0180  135.6120  -23.1790 C.3   227  LYS227      0.1093
    147  NZ       126.9520  136.5950  -22.5850 N.3   227  LYS227     -0.1314
    148  N        126.4780  130.0690  -19.9420 N.am  228  PRO228     -0.2718
    149  CA       126.5820  129.0710  -18.8690 C.3   228  PRO228      0.1535
    150  C        125.9700  129.4690  -17.5350 C.2   228  PRO228      0.2599
    151  O        125.7440  130.6320  -17.2610 O.2   228  PRO228     -0.2715
    152  CB       128.0980  128.8670  -18.7350 C.3   228  PRO228      0.0310
    153  CG       128.5820  129.0920  -20.1390 C.3   228  PRO228      0.0237
    154  CD       127.8070  130.3350  -20.5310 C.3   228  PRO228      0.0939
    155  N        125.7200  128.4760  -16.7020 N.am  229  GLY229     -0.1955
    156  CA       125.1560  128.7390  -15.4060 C.3   229  GLY229      0.1869
    157  C        126.3000  128.8900  -14.4450 C.2   229  GLY229      0.2309
    158  O        127.2640  128.1170  -14.4720 O.2   229  GLY229     -0.2863
@<TRIPOS>BOND
     1   146   147    1
     2   146   145    1
     3   139   140    1
     4   144   145    1
     5   144   143    1
     6   128   126    1
     7   143   140    1
     8   140   141    1
     9   136   135    2
    10   126   125    2
    11   126   127    1
    12   141   142    2
    13   141   148   am
    14   154   153    1
    15   154   148    1
    16   125   124    1
    17   153   152    1
    18    47    46    1
    19   148   149    1
    20   135   134    1
    21   121   120    2
    22   130   129    1
    23   130   131    1
    24   133   134    1
    25   133   131   am
    26   124   123    1
    27   122   123    1
    28   122   119    1
    29   120   129   am
    30   120   119    1
    31   149   152    1
    32   149   150    1
    33    42    43    1
    34    46    43    1
    35    55    53   ar
    36   134   137    1
    37   131   132    2
    38    52    53    1
    39    52    49    1
    40    48    49    1
    41    44    43    1
    42    44    45    2
    43   119   118    1
    44   137   138    1
    45    53    54   ar
    46    49    50    1
    47   150   151    2
    48   150   155   am
    49   118   116   am
    50    30    29    1
    51   155   156    1
    52   138    67    1
    53    50    51    2
    54    50    56   am
    55   116   117    2
    56   116   115    1
    57    29    31    1
    58    29    28    1
    59    59    58    2
    60   156   157    1
    61    56    57    1
    62    67    66    1
    63   115   114    1
    64    22    21    1
    65   112   113   ar
    66   112   110   ar
    67    28    25    1
    68   113   111   ar
    69    66    63    1
    70    75    74    2
    71   158   157    2
    72    58    57    1
    73    58    62   am
    74    23    21    1
    75    57    60    1
    76   110   107   ar
    77    21    18    1
    78   114   102   am
    79    76    74   am
    80    74    73    1
    81    63    62    1
    82    63    64    1
    83    25    24    1
    84    25    26    1
    85   111   109   ar
    86    61    60    1
    87    24    19   am
    88   103   102    2
    89    20    19    2
    90    19    18    1
    91   102   101    1
    92   107   109   ar
    93   107   105   ar
    94    18    17    1
    95    68    64   am
    96    68    69    1
    97    26    27    2
    98   109   108   ar
    99    64    65    2
   100    73    72    1
   101    72    69    1
   102   101   104    1
   103   101   100    1
   104   105   104    1
   105   105   106   ar
   106    69    70    1
   107    71    70    2
   108   108   106   ar
   109    70    77   am
   110   100    96   am
   111    92    91    1
   112    77    78    1
   113    96    97    2
   114    96    95    1
   115    93    91    1
   116    32    33    1
   117    39    41   ar
   118    39    37   ar
   119    91    88    1
   120    41    40   ar
   121    94    95    1
   122    94    89   am
   123    78    79    1
   124    95    98    1
   125    79    80    2
   126    88    89    1
   127    88    87    1
   128    86    85    1
   129    81    82    1
   130    37    36    1
   131    37    38   ar
   132    98    99    1
   133    89    90    2
   134    33    36    1
   135    33    34    1
   136    40    38   ar
   137    35    34    2
   138    82    85    1
   139    82    83    1
   140    16    15   ar
   141    16    14   ar
   142    15    13   ar
   143    14    12   ar
   144    83    84    2
   145    13    12   ar
   146    12    11    1
   147    11     8    1
   148     6     5    1
   149    10     9    2
   150     8     9    1
   151     8     7    1
   152     2     5    1
   153     2     3    1
   154     2     1    1
   155     3     4    2
