@<TRIPOS>MOLECULE
tmp/1lmwD00.pdb
 136 132 0 0 0
SMALL
GASTEIGER

@<TRIPOS>ATOM
      1  N        114.9560  110.3850   -3.2920 N.3    10  GLU10      -0.1231
      2  CA       115.7770  109.1990   -3.1810 C.3    10  GLU10       0.1699
      3  C        117.0240  109.4080   -4.0400 C.2    10  GLU10       0.2592
      4  O        118.1030  108.8770   -3.7540 O.2    10  GLU10      -0.2718
      5  CB       114.9750  108.0050   -3.6830 C.3    10  GLU10       0.0402
      6  CG       113.5920  107.9200   -3.0470 C.3    10  GLU10       0.1161
      7  CD       112.7130  106.8590   -3.6740 C.2    10  GLU10       0.3649
      8  OE1      112.9930  106.4160   -4.8140 O.co2  10  GLU10      -0.2457
      9  OE2      111.7290  106.4770   -3.0150 O.co2  10  GLU10      -0.2457
     10  N        116.8650  110.2260   -5.0710 N.am   11  ASN11      -0.1974
     11  CA       117.9340  110.5460   -6.0050 C.3    11  ASN11       0.1688
     12  C        118.7290  111.8290   -5.6550 C.2    11  ASN11       0.2292
     13  O        119.5330  112.2990   -6.4800 O.2    11  ASN11      -0.2864
     14  CB       117.3340  110.6840   -7.4050 C.3    11  ASN11       0.1181
     15  CG       116.3720  109.5610   -7.7360 C.2    11  ASN11       0.2629
     16  OD1      116.7980  108.4800   -8.1310 O.2    11  ASN11      -0.2716
     17  ND2      115.0670  109.8070   -7.5700 N.am   11  ASN11      -0.0877
     18  N        118.7540  112.9840   -1.6910 N.3    13  PRO13      -0.2102
     19  CA       118.3180  113.0360   -0.2820 C.3    13  PRO13       0.1504
     20  C        118.9070  114.0980    0.6170 C.2    13  PRO13       0.2575
     21  O        118.4740  114.2670    1.7640 O.2    13  PRO13      -0.2718
     22  CB       118.6620  111.6450    0.2310 C.3    13  PRO13       0.0282
     23  CG       119.9110  111.3190   -0.5700 C.3    13  PRO13       0.0208
     24  CD       119.5280  111.7570   -1.9570 C.3    13  PRO13       0.0893
     25  N        119.9510  114.7490    0.1260 N.am   14  TRP14      -0.1977
     26  CA       120.6380  115.8020    0.8660 C.3    14  TRP14       0.1640
     27  C        119.9140  117.1380    0.7210 C.2    14  TRP14       0.2290
     28  O        119.9690  117.9710    1.6260 O.2    14  TRP14      -0.2864
     29  CB       122.0690  115.9130    0.3650 C.3    14  TRP14       0.0576
     30  CG       122.1990  115.6050   -1.1010 C.ar   14  TRP14       0.0006
     31  CD1      122.0070  116.4700   -2.1610 C.ar   14  TRP14       0.0946
     32  CD2      122.5050  114.3380   -1.6730 C.ar   14  TRP14       0.0152
     33  NE1      122.1740  115.7980   -3.3560 N.ar   14  TRP14      -0.2442
     34  CE2      122.4810  114.4910   -3.0840 C.ar   14  TRP14       0.0810
     35  CE3      122.7870  113.0860   -1.1350 C.ar   14  TRP14       0.0012
     36  CZ2      122.7310  113.4330   -3.9560 C.ar   14  TRP14       0.0191
     37  CZ3      123.0290  112.0330   -2.0070 C.ar   14  TRP14       0.0001
     38  CH2      122.9990  112.2170   -3.4040 C.ar   14  TRP14       0.0015
     39  N        118.2570  109.7600    8.2860 N.3   114  SER114     -0.1202
     40  CA       117.7750  108.4210    7.9730 C.3   114  SER114      0.2020
     41  C        117.6180  108.0710    6.4960 C.2   114  SER114      0.2619
     42  O        118.5660  108.2540    5.7230 O.2   114  SER114     -0.2717
     43  CB       116.5210  108.1150    8.7710 C.3   114  SER114      0.2103
     44  OG       116.8680  107.9840   10.1400 O.3   114  SER114     -0.2182
     45  N        116.4480  107.5630    6.1030 N.am  115  ARG115     -0.1965
     46  CA       116.2180  107.1460    4.7150 C.3   115  ARG115      0.1729
     47  C        116.1760  108.2240    3.6220 C.2   115  ARG115      0.2616
     48  O        116.6470  107.9900    2.5090 O.2   115  ARG115     -0.2715
     49  CB       114.9960  106.2280    4.6350 C.3   115  ARG115      0.0348
     50  CG       115.3330  104.7840    4.2430 C.3   115  ARG115      0.0492
     51  CD       115.6410  104.6500    2.7380 C.3   115  ARG115      0.2205
     52  NE       116.0340  103.2940    2.3280 N.pl3 115  ARG115     -0.0865
     53  CZ       115.1970  102.2830    2.0740 C.cat 115  ARG115      0.5346
     54  NH1      113.8800  102.4280    2.1800 N.pl3 115  ARG115      0.1354
     55  NH2      115.6880  101.1080    1.7040 N.pl3 115  ARG115      0.1354
     56  N        115.5950  109.3840    3.9240 N.am  116  THR116     -0.1951
     57  CA       115.5310  110.4950    2.9670 C.3   116  THR116      0.1897
     58  C        115.9380  111.8100    3.6610 C.2   116  THR116      0.2313
     59  O        115.3560  112.8800    3.4330 O.2   116  THR116     -0.2863
     60  CB       114.1260  110.6190    2.3120 C.3   116  THR116      0.1794
     61  OG1      113.1090  110.5740    3.3210 O.3   116  THR116     -0.2208
     62  CG2      113.8990  109.4940    1.3090 C.3   116  THR116      0.0378
     63  N        119.7290  113.0050    4.3010 N.3   118  GLN118     -0.1231
     64  CA       121.1720  112.7970    4.2240 C.3   118  GLN118      0.1698
     65  C        121.9400  114.0930    3.9850 C.2   118  GLN118      0.2593
     66  O        121.3760  115.0860    3.5130 O.2   118  GLN118     -0.2718
     67  CB       121.5060  111.7870    3.1200 C.3   118  GLN118      0.0381
     68  CG       122.9070  111.2070    3.2060 C.3   118  GLN118      0.0905
     69  CD       123.0820  110.3220    4.4230 C.2   118  GLN118      0.2608
     70  OE1      122.9260  109.1010    4.3370 O.2   118  GLN118     -0.2717
     71  NE2      123.3900  110.9300    5.5700 N.am  118  GLN118     -0.0878
     72  N        123.2280  114.0650    4.3370 N.am  119  THR119     -0.1939
     73  CA       124.1350  115.2030    4.1750 C.3   119  THR119      0.2028
     74  C        125.1180  114.9880    3.0100 C.2   119  THR119      0.2642
     75  O        125.4640  113.8460    2.6720 O.2   119  THR119     -0.2714
     76  CB       124.9310  115.4870    5.4750 C.3   119  THR119      0.1808
     77  OG1      125.9560  114.5030    5.6530 O.3   119  THR119     -0.2208
     78  CG2      124.0050  115.4610    6.6770 C.3   119  THR119      0.0379
     79  N        125.5350  116.0960    2.3880 N.am  120  ILE120     -0.1963
     80  CA       126.4740  116.0960    1.2520 C.3   120  ILE120      0.1727
     81  C        127.9420  116.0150    1.6700 C.2   120  ILE120      0.2616
     82  O        128.3270  116.5090    2.7320 O.2   120  ILE120     -0.2715
     83  CB       126.3010  117.3500    0.3210 C.3   120  ILE120      0.0290
     84  CG1      125.5900  118.5080    1.0530 C.3   120  ILE120      0.0022
     85  CG2      125.6210  116.9590   -0.9960 C.3   120  ILE120      0.0023
     86  CD1      126.5080  119.6530    1.5060 C.3   120  ILE120      0.0001
     87  N        128.7540  115.3920    0.8160 N.am  121  CYS121     -0.1954
     88  CA       130.1760  115.2330    1.0900 C.3   121  CYS121      0.1843
     89  C        130.9440  116.5030    0.8110 C.2   121  CYS121      0.2625
     90  O        131.0420  116.9580   -0.3220 O.2   121  CYS121     -0.2714
     91  CB       130.7560  114.0470    0.3180 C.3   121  CYS121      0.0997
     92  SG       130.2910  112.4370    1.0370 S.3   121  CYS121     -0.0797
     93  N        131.4390  117.0970    1.8860 N.am  122  LEU122     -0.1977
     94  CA       132.2000  118.3320    1.8190 C.3   122  LEU122      0.1596
     95  C        133.4890  118.0510    1.0440 C.2   122  LEU122      0.2287
     96  O        134.1990  117.0810    1.3420 O.2   122  LEU122     -0.2864
     97  CB       132.5010  118.8170    3.2420 C.3   122  LEU122      0.0297
     98  CG       131.5100  118.3190    4.3120 C.3   122  LEU122      0.0022
     99  CD1      132.0100  117.0060    4.9140 C.3   122  LEU122      0.0001
    100  CD2      131.3360  119.3480    5.4100 C.3   122  LEU122      0.0001
    101  N        125.4260  116.9500  -11.8580 N.3   136  GLU136     -0.1245
    102  CA       123.9950  117.1290  -11.9240 C.3   136  GLU136      0.1567
    103  C        123.4230  118.1260  -10.9210 C.2   136  GLU136      0.2260
    104  O        123.9750  118.4100   -9.8420 O.2   136  GLU136     -0.2867
    105  CB       123.2920  115.7780  -11.8080 C.3   136  GLU136      0.0388
    106  CG       123.4590  115.1410  -10.4460 C.3   136  GLU136      0.1160
    107  CD       123.8400  113.6740  -10.5300 C.2   136  GLU136      0.3649
    108  OE1      124.2660  113.2160  -11.6190 O.co2 136  GLU136     -0.2457
    109  OE2      123.7210  112.9760   -9.4960 O.co2 136  GLU136     -0.2457
    110  N        115.5330  117.1280  -12.2260 N.3   156  MET156     -0.1245
    111  CA       116.9670  116.8010  -12.2230 C.3   156  MET156      0.1570
    112  C        117.5430  116.7490  -13.6530 C.2   156  MET156      0.2261
    113  O        116.8110  116.4570  -14.6050 O.2   156  MET156     -0.2867
    114  CB       117.1110  115.4250  -11.5490 C.3   156  MET156      0.0387
    115  CG       118.4470  114.7140  -11.6490 C.3   156  MET156      0.0595
    116  SD       118.3720  113.1540  -10.7050 S.3   156  MET156     -0.1393
    117  CE       119.9110  113.2120   -9.7570 C.3   156  MET156      0.0692
    118  N        132.8820  109.4110   -3.5960 N.3   209  ARG209     -0.1231
    119  CA       131.8600  110.0390   -2.7680 C.3   209  ARG209      0.1694
    120  C        131.1870  111.1770   -3.5410 C.2   209  ARG209      0.2591
    121  O        131.8390  111.8590   -4.3300 O.2   209  ARG209     -0.2718
    122  CB       132.5220  110.5930   -1.4990 C.3   209  ARG209      0.0321
    123  CG       133.6430  109.7040   -0.9080 C.3   209  ARG209      0.0489
    124  CD       133.1310  108.3240   -0.4360 C.3   209  ARG209      0.2205
    125  NE       134.1820  107.4960    0.1710 N.pl3 209  ARG209     -0.0865
    126  CZ       133.9780  106.3190    0.7700 C.cat 209  ARG209      0.5346
    127  NH1      132.7550  105.8030    0.8570 N.pl3 209  ARG209      0.1354
    128  NH2      135.0060  105.6570    1.2920 N.pl3 209  ARG209      0.1354
    129  N        129.8770  111.3430   -3.3710 N.am  210  MET210     -0.1979
    130  CA       129.1780  112.4320   -4.0490 C.3   210  MET210      0.1605
    131  C        129.3490  113.6740   -3.1430 C.2   210  MET210      0.2287
    132  O        129.0160  113.6450   -1.9540 O.2   210  MET210     -0.2864
    133  CB       127.7100  112.0590   -4.3290 C.3   210  MET210      0.0413
    134  CG       127.5650  110.6980   -5.0470 C.3   210  MET210      0.0598
    135  SD       126.5650  110.5480   -6.5840 S.3   210  MET210     -0.1393
    136  CE       127.2670  111.9640   -7.6050 C.3   210  MET210      0.0692
@<TRIPOS>BOND
     1   113   112    2
     2   112   111    1
     3   110   111    1
     4   111   114    1
     5   102   101    1
     6   102   105    1
     7   102   103    1
     8   105   106    1
     9   115   114    1
    10   115   116    1
    11   108   107   ar
    12   103   104    2
    13   116   117    1
    14   107   106    1
    15   107   109   ar
    16    16    15    2
    17    15    17   am
    18    15    14    1
    19   136   135    1
    20    14    11    1
    21   135   134    1
    22    13    12    2
    23    11    12    1
    24    11    10    1
    25    10     3   am
    26   134   133    1
    27     8     7   ar
    28   121   120    2
    29   133   130    1
    30   130   129    1
    31   130   131    1
    32     3     4    2
    33     3     2    1
    34    36    38   ar
    35    36    34   ar
    36     5     2    1
    37     5     6    1
    38     7     6    1
    39     7     9   ar
    40   118   119    1
    41   120   129   am
    42   120   119    1
    43    38    37   ar
    44    33    34   ar
    45    33    31   ar
    46     1     2    1
    47   131   132    2
    48    34    32   ar
    49   119   122    1
    50    31    30   ar
    51    37    35   ar
    52    24    18    1
    53    24    23    1
    54    18    19    1
    55    32    35   ar
    56    32    30   ar
    57   122   123    1
    58    30    29    1
    59    85    83    1
    60   123   124    1
    61    23    22    1
    62   124   125    1
    63    90    89    2
    64    19    22    1
    65    19    20    1
    66    25    20   am
    67    25    26    1
    68   125   126    2
    69    91    92    1
    70    91    88    1
    71    83    84    1
    72    83    80    1
    73    29    26    1
    74    20    21    2
    75    27    26    1
    76    27    28    2
    77   126   127    1
    78   126   128    1
    79    89    88    1
    80    89    93   am
    81    87    88    1
    82    87    81   am
    83    95    96    2
    84    95    94    1
    85    84    86    1
    86    80    81    1
    87    80    79    1
    88    62    60    1
    89    81    82    2
    90    55    53    1
    91    94    93    1
    92    94    97    1
    93    53    54    1
    94    53    52    2
    95    60    57    1
    96    60    61    1
    97    52    51    1
    98    79    74   am
    99    48    47    2
   100    75    74    2
   101    51    50    1
   102    57    58    1
   103    57    56    1
   104    74    73    1
   105    67    68    1
   106    67    64    1
   107    68    69    1
   108    97    98    1
   109    59    58    2
   110    66    65    2
   111    47    56   am
   112    47    46    1
   113    65    64    1
   114    65    72   am
   115    73    72    1
   116    73    76    1
   117    64    63    1
   118    50    49    1
   119    98    99    1
   120    98   100    1
   121    70    69    2
   122    69    71   am
   123    49    46    1
   124    46    45    1
   125    76    77    1
   126    76    78    1
   127    42    41    2
   128    45    41   am
   129    41    40    1
   130    40    39    1
   131    40    43    1
   132    43    44    1
