@<TRIPOS>MOLECULE
tmp/1ln6A00.pdb
 178 171 0 0 0
SMALL
GASTEIGER

@<TRIPOS>ATOM
      1  N          4.7410    1.5820   -2.7960 N.3    43  ALA43      -0.1231
      2  CA         4.8730    2.9160   -2.1670 C.3    43  ALA43       0.1694
      3  C          5.5700    2.6720   -0.8950 C.2    43  ALA43       0.2592
      4  O          6.7340    2.9390   -0.8130 O.2    43  ALA43      -0.2718
      5  CB         3.4710    3.4180   -2.0300 C.3    43  ALA43       0.0304
      6  N          4.8720    2.2750    0.1490 N.am   44  ASP44      -0.1974
      7  CA         5.3610    1.6040    1.3460 C.3    44  ASP44       0.1709
      8  C          6.7510    0.9820    1.3270 C.2    44  ASP44       0.2293
      9  O          7.5840    1.2990    2.1680 O.2    44  ASP44      -0.2864
     10  CB         4.2290    0.6060    1.8020 C.3    44  ASP44       0.1436
     11  CG         4.1490   -0.5350    0.8210 C.2    44  ASP44       0.3671
     12  OD1        4.1100   -0.2230   -0.4130 O.co2  44  ASP44      -0.2456
     13  OD2        3.9640   -1.6610    1.2000 O.co2  44  ASP44      -0.2456
     14  N          9.6460    3.3310    0.7680 N.3    47  MET47      -0.1245
     15  CA         9.9090    4.2320    1.8740 C.3    47  MET47       0.1570
     16  C         11.2000    3.8840    2.5530 C.2    47  MET47       0.2261
     17  O         11.9750    4.6700    3.0790 O.2    47  MET47      -0.2867
     18  CB         8.6090    4.1710    2.7340 C.3    47  MET47       0.0387
     19  CG         7.2810    4.6370    2.1130 C.3    47  MET47       0.0595
     20  SD         6.1260    5.0660    3.4130 S.3    47  MET47      -0.1393
     21  CE         4.5880    5.1670    2.4430 C.3    47  MET47       0.0692
     22  N          6.0010   10.0020   -2.8770 N.3    77  PHE77      -0.1227
     23  CA         5.3480    9.2050   -1.8560 C.3    77  PHE77       0.1736
     24  C          3.9390    9.6110   -1.5550 C.2    77  PHE77       0.2595
     25  O          2.9700    8.8370   -1.4760 O.2    77  PHE77      -0.2718
     26  CB         6.1810    9.0400   -0.5670 C.3    77  PHE77       0.0547
     27  CG         7.4220    8.4520   -0.9710 C.ar   77  PHE77      -0.0202
     28  CD1        8.5330    9.2140   -1.3300 C.ar   77  PHE77      -0.0042
     29  CD2        7.5050    7.0700   -0.9410 C.ar   77  PHE77      -0.0042
     30  CE1        9.7090    8.5940   -1.6890 C.ar   77  PHE77      -0.0003
     31  CE2        8.7170    6.4360   -1.2050 C.ar   77  PHE77      -0.0003
     32  CZ         9.8080    7.2210   -1.5300 C.ar   77  PHE77      -0.0000
     33  N          3.7620   10.9470   -1.3440 N.am   78  ALA78      -0.1966
     34  CA         2.4840   11.4600   -0.9450 C.3    78  ALA78       0.1728
     35  C          1.3160   11.2810   -1.9810 C.2    78  ALA78       0.2616
     36  O          0.2540   11.9180   -1.7510 O.2    78  ALA78      -0.2715
     37  CB         2.7760   12.9100   -0.4980 C.3    78  ALA78       0.0334
     38  N          1.5050   10.5070   -3.1110 N.am   79  THR79      -0.1951
     39  CA         0.4120   10.1470   -4.0090 C.3    79  THR79       0.1897
     40  C          0.5590    8.6850   -4.3800 C.2    79  THR79       0.2313
     41  O         -0.3310    7.8960   -4.5320 O.2    79  THR79      -0.2863
     42  CB         0.4310   11.0640   -5.3030 C.3    79  THR79       0.1794
     43  OG1        1.6020   11.1120   -6.1270 O.3    79  THR79      -0.2208
     44  CG2        0.1570   12.5150   -4.8920 C.3    79  THR79       0.0378
     45  N          1.9850    6.5390   -2.5880 N.3    81  GLY81      -0.1225
     46  CA         1.3110    5.9470   -1.3990 C.3    81  GLY81       0.1811
     47  C         -0.1880    6.2700   -1.3840 C.2    81  GLY81       0.2280
     48  O         -0.8010    6.6730   -0.3850 O.2    81  GLY81      -0.2866
     49  N         -5.3420   14.2560   -7.5260 N.3   130  ALA130     -0.1245
     50  CA        -4.2100   14.9740   -6.9770 C.3   130  ALA130      0.1562
     51  C         -3.0040   15.1920   -7.9120 C.2   130  ALA130      0.2260
     52  O         -2.6470   16.3180   -8.1820 O.2   130  ALA130     -0.2867
     53  CB        -3.7570   14.2930   -5.6610 C.3   130  ALA130      0.0290
     54  N         -3.8850   18.9360   -7.1780 N.3   134  VAL134     -0.1245
     55  CA        -2.9470   19.0840   -6.0150 C.3   134  VAL134      0.1561
     56  C         -1.5760   19.4220   -6.5890 C.2   134  VAL134      0.2260
     57  O         -0.7710   20.1380   -5.9760 O.2   134  VAL134     -0.2867
     58  CB        -2.8630   17.7570   -5.1960 C.3   134  VAL134      0.0252
     59  CG1       -1.6580   17.7150   -4.1910 C.3   134  VAL134      0.0019
     60  CG2       -4.1200   17.3990   -4.3760 C.3   134  VAL134      0.0019
     61  N         -8.3110   20.1820   -3.6580 N.3   164  PHE164     -0.1227
     62  CA        -7.0550   20.1460   -2.9450 C.3   164  PHE164      0.1736
     63  C         -7.2580   19.0910   -1.9140 C.2   164  PHE164      0.2595
     64  O         -7.8500   18.0520   -2.2010 O.2   164  PHE164     -0.2718
     65  CB        -6.6110   21.5200   -2.4410 C.3   164  PHE164      0.0547
     66  CG        -5.1660   21.7500   -1.9890 C.ar  164  PHE164     -0.0202
     67  CD1       -4.1300   20.8150   -1.9390 C.ar  164  PHE164     -0.0042
     68  CD2       -4.7800   23.0570   -1.5080 C.ar  164  PHE164     -0.0042
     69  CE1       -2.8270   21.0910   -1.5890 C.ar  164  PHE164     -0.0003
     70  CE2       -3.4690   23.3350   -1.0880 C.ar  164  PHE164     -0.0003
     71  CZ        -2.5190   22.3780   -1.1690 C.ar  164  PHE164     -0.0000
     72  N         -6.9250   19.5370   -0.6550 N.am  165  VAL165     -0.1980
     73  CA        -7.7770   19.2100    0.4200 C.3   165  VAL165      0.1595
     74  C         -9.1700   19.8110    0.1170 C.2   165  VAL165      0.2287
     75  O         -9.2600   20.7880   -0.5620 O.2   165  VAL165     -0.2864
     76  CB        -7.2200   19.7750    1.7450 C.3   165  VAL165      0.0276
     77  CG1       -6.0090   19.0720    2.0300 C.3   165  VAL165      0.0022
     78  CG2       -7.1170   21.3570    1.7100 C.3   165  VAL165      0.0022
     79  N         -9.2090   14.6910   -1.9700 N.3   168  MET168     -0.1230
     80  CA        -8.6130   13.4210   -2.1930 C.3   168  MET168      0.1702
     81  C         -9.3100   12.3330   -1.3750 C.2   168  MET168      0.2592
     82  O         -9.3260   11.1690   -1.7730 O.2   168  MET168     -0.2718
     83  CB        -7.0930   13.6150   -1.8760 C.3   168  MET168      0.0401
     84  CG        -6.3150   14.4030   -2.9130 C.3   168  MET168      0.0596
     85  SD        -6.6210   13.8520   -4.6180 S.3   168  MET168     -0.1393
     86  CE        -7.7630   15.1770   -5.1940 C.3   168  MET168      0.0692
     87  N         -9.9240   12.7110   -0.1870 N.am  169  PHE169     -0.1976
     88  CA       -11.0160   11.8710    0.3090 C.3   169  PHE169      0.1639
     89  C        -12.3750   12.3920   -0.2020 C.2   169  PHE169      0.2290
     90  O        -13.1830   11.5490   -0.6190 O.2   169  PHE169     -0.2864
     91  CB       -11.0200   11.9480    1.8280 C.3   169  PHE169      0.0560
     92  CG       -12.1150   11.2240    2.4270 C.ar  169  PHE169     -0.0200
     93  CD1      -12.0500    9.8470    2.3290 C.ar  169  PHE169     -0.0042
     94  CD2      -13.0960   11.7840    3.1770 C.ar  169  PHE169     -0.0042
     95  CE1      -12.9670    9.0000    2.9900 C.ar  169  PHE169     -0.0003
     96  CE2      -13.9820   11.0060    3.8780 C.ar  169  PHE169     -0.0003
     97  CZ       -13.9190    9.6270    3.8130 C.ar  169  PHE169     -0.0000
     98  N        -13.1940    8.5550   -1.7380 N.3   173  PHE173     -0.1241
     99  CA       -12.7920    7.2740   -1.2370 C.3   173  PHE173      0.1605
    100  C        -13.7700    6.7530   -0.0770 C.2   173  PHE173      0.2264
    101  O        -13.4140    6.1540    0.9200 O.2   173  PHE173     -0.2867
    102  CB       -11.3430    7.4510   -0.7580 C.3   173  PHE173      0.0534
    103  CG       -10.4800    6.2670   -1.1160 C.ar  173  PHE173     -0.0203
    104  CD1      -10.6250    5.0460   -0.3900 C.ar  173  PHE173     -0.0042
    105  CD2       -9.6220    6.4190   -2.2140 C.ar  173  PHE173     -0.0042
    106  CE1       -9.8410    3.9620   -0.7110 C.ar  173  PHE173     -0.0003
    107  CE2       -8.8720    5.2770   -2.5060 C.ar  173  PHE173     -0.0003
    108  CZ        -8.9630    4.1140   -1.8130 C.ar  173  PHE173     -0.0000
    109  N         -3.7110    3.4730    5.0730 N.3   225  CYS225     -0.1221
    110  CA        -3.0110    4.7290    4.8360 C.3   225  CYS225      0.1808
    111  C         -3.9110    5.7020    4.0090 C.2   225  CYS225      0.2601
    112  O         -4.6100    6.6110    4.5030 O.2   225  CYS225     -0.2717
    113  CB        -1.6270    4.4930    4.2790 C.3   225  CYS225      0.0970
    114  SG        -0.5160    3.6300    5.5020 S.3   225  CYS225     -0.0800
    115  N         -4.0640    5.4170    2.7170 N.am  226  TRP226     -0.1962
    116  CA        -4.6390    6.3220    1.7280 C.3   226  TRP226      0.1771
    117  C         -6.0400    6.7720    2.0470 C.2   226  TRP226      0.2619
    118  O         -6.3110    7.9640    2.0730 O.2   226  TRP226     -0.2715
    119  CB        -4.1960    5.8820    0.2900 C.3   226  TRP226      0.0590
    120  CG        -4.6710    6.9190   -0.7260 C.ar  226  TRP226      0.0006
    121  CD1       -5.4820    6.7170   -1.8750 C.ar  226  TRP226      0.0946
    122  CD2       -4.2180    8.3250   -0.8110 C.ar  226  TRP226      0.0152
    123  NE1       -5.6200    7.8540   -2.5910 N.ar  226  TRP226     -0.2442
    124  CE2       -4.8860    8.8730   -1.9840 C.ar  226  TRP226      0.0810
    125  CE3       -3.3490    9.1600   -0.1130 C.ar  226  TRP226      0.0012
    126  CZ2       -4.6450   10.2130   -2.2990 C.ar  226  TRP226      0.0191
    127  CZ3       -3.1230   10.4800   -0.3680 C.ar  226  TRP226      0.0001
    128  CH2       -3.7970   11.0620   -1.4920 C.ar  226  TRP226      0.0015
    129  N         -6.9880    5.8410    2.2950 N.am  227  LEU227     -0.1977
    130  CA        -8.3710    6.2220    2.5710 C.3   227  LEU227      0.1596
    131  C         -8.4210    7.3860    3.5450 C.2   227  LEU227      0.2287
    132  O         -8.8650    8.5120    3.1470 O.2   227  LEU227     -0.2864
    133  CB        -9.2310    4.9570    3.0070 C.3   227  LEU227      0.0297
    134  CG       -10.7520    5.3440    3.1200 C.3   227  LEU227      0.0022
    135  CD1      -11.6740    4.1860    3.1490 C.3   227  LEU227      0.0001
    136  CD2      -11.0280    6.1970    4.3700 C.3   227  LEU227      0.0001
    137  N         -6.4440    9.5700    4.6780 N.3   229  TYR229     -0.1227
    138  CA        -5.3870   10.5550    4.7700 C.3   229  TYR229      0.1736
    139  C         -5.7630   12.0170    4.5100 C.2   229  TYR229      0.2595
    140  O         -5.0820   12.9650    4.9120 O.2   229  TYR229     -0.2718
    141  CB        -4.1080   10.0950    3.9170 C.3   229  TYR229      0.0548
    142  CG        -2.7430   10.1110    4.7500 C.ar  229  TYR229     -0.0200
    143  CD1       -2.2930    9.0170    5.5000 C.ar  229  TYR229     -0.0009
    144  CD2       -1.9900   11.2610    4.7860 C.ar  229  TYR229     -0.0009
    145  CE1       -1.1740    9.0440    6.3170 C.ar  229  TYR229      0.0417
    146  CE2       -0.8500   11.4260    5.5690 C.ar  229  TYR229      0.0417
    147  CZ        -0.4270   10.2910    6.3330 C.ar  229  TYR229      0.1957
    148  OH         0.6640   10.4930    7.1210 O.3   229  TYR229     -0.2866
    149  N         -6.8650   12.1520    3.7620 N.am  230  ALA230     -0.1980
    150  CA        -7.3860   13.5800    3.5570 C.3   230  ALA230      0.1597
    151  C         -7.6230   14.4190    4.8210 C.2   230  ALA230      0.2287
    152  O         -7.4060   15.5980    4.8550 O.2   230  ALA230     -0.2864
    153  CB        -8.4800   13.7570    2.5590 C.3   230  ALA230      0.0319
    154  N         -4.0420   15.6890    5.8790 N.3   233  ALA233     -0.1245
    155  CA        -3.5820   16.7780    5.0810 C.3   233  ALA233      0.1562
    156  C         -4.2990   18.1120    5.2910 C.2   233  ALA233      0.2260
    157  O         -3.7640   19.2010    5.3510 O.2   233  ALA233     -0.2867
    158  CB        -3.7000   16.3800    3.6230 C.3   233  ALA233      0.0290
    159  N          2.4320    7.7120    7.5510 N.3   256  ALA256     -0.1231
    160  CA         2.5060    6.9660    6.2740 C.3   256  ALA256      0.1694
    161  C          3.9850    6.4650    6.2470 C.2   256  ALA256      0.2591
    162  O          4.2430    5.3330    5.8890 O.2   256  ALA256     -0.2718
    163  CB         2.3150    7.8660    5.0250 C.3   256  ALA256      0.0304
    164  N          4.9330    7.2000    6.8730 N.am  257  LYS257     -0.1980
    165  CA         6.2330    6.6080    6.6080 C.3   257  LYS257      0.1596
    166  C          6.6210    5.6960    7.7730 C.2   257  LYS257      0.2287
    167  O          7.7940    5.3690    7.9430 O.2   257  LYS257     -0.2864
    168  CB         7.2660    7.6960    6.3070 C.3   257  LYS257      0.0298
    169  CG         8.3180    7.7740    7.4160 C.3   257  LYS257      0.0038
    170  CD         9.3510    8.8620    7.1150 C.3   257  LYS257      0.0206
    171  CE         9.8930    8.7250    5.6910 C.3   257  LYS257      0.1093
    172  NZ         8.9400    9.2870    4.7200 N.3   257  LYS257     -0.1314
    173  N          5.4310    2.8570    7.3290 N.3   259  SER259     -0.1217
    174  CA         5.4150    1.7040    6.3410 C.3   259  SER259      0.1889
    175  C          6.7530    0.9150    6.3310 C.2   259  SER259      0.2288
    176  O          6.8380   -0.2840    6.0670 O.2   259  SER259     -0.2866
    177  CB         5.2340    2.2070    4.9540 C.3   259  SER259      0.2089
    178  OG         3.9450    2.7160    4.6720 O.3   259  SER259     -0.2183
@<TRIPOS>BOND
     1    52    51    2
     2    51    50    1
     3    49    50    1
     4    54    55    1
     5    50    53    1
     6    56    55    1
     7    56    57    2
     8    43    42    1
     9    55    58    1
    10    42    44    1
    11    42    39    1
    12    58    60    1
    13    58    59    1
    14    86    85    1
    15    85    84    1
    16    41    40    2
    17    40    39    1
    18    39    38    1
    19    61    62    1
    20    38    35   am
    21    62    65    1
    22    62    63    1
    23    84    83    1
    24    22    23    1
    25     1     2    1
    26   123   124   ar
    27   123   121   ar
    28    45    46    1
    29   107   105   ar
    30   107   108   ar
    31    65    66    1
    32   126   124   ar
    33   126   128   ar
    34   105   103   ar
    35    64    63    2
    36    80    79    1
    37    80    83    1
    38    80    81    1
    39     2     5    1
    40     2     3    1
    41    66    67   ar
    42    66    68   ar
    43   124   122   ar
    44    35    36    2
    45    35    34    1
    46    67    69   ar
    47    63    72   am
    48   121   120   ar
    49    23    24    1
    50    23    26    1
    51   108   106   ar
    52    82    81    2
    53    98    99    1
    54    30    32   ar
    55    30    28   ar
    56    69    71   ar
    57    24    25    2
    58    24    33   am
    59    32    31   ar
    60    68    70   ar
    61   128   127   ar
    62    46    47    1
    63    47    48    2
    64    81    87   am
    65    33    34    1
    66    28    27   ar
    67    99   102    1
    68    99   100    1
    69    31    29   ar
    70    71    70   ar
    71   103   102    1
    72   103   104   ar
    73    27    29   ar
    74    27    26    1
    75    34    37    1
    76     3     4    2
    77     3     6   am
    78   122   120   ar
    79   122   125   ar
    80   120   119    1
    81   106   104   ar
    82    72    73    1
    83    90    89    2
    84    75    74    2
    85    12    11   ar
    86   127   125   ar
    87    89    88    1
    88    87    88    1
    89   100   101    2
    90    74    73    1
    91     6     7    1
    92   119   116    1
    93    88    91    1
    94    73    76    1
    95    14    15    1
    96    11    13   ar
    97    11    10    1
    98     8     7    1
    99     8     9    2
   100     7    10    1
   101    78    76    1
   102   116   117    1
   103   116   115    1
   104    76    77    1
   105    91    92    1
   106    15    16    1
   107    15    18    1
   108   117   118    2
   109   117   129   am
   110    19    18    1
   111    19    20    1
   112   129   130    1
   113    93    92   ar
   114    93    95   ar
   115    92    94   ar
   116    21    20    1
   117    16    17    2
   118   153   150    1
   119   130   133    1
   120   130   131    1
   121   115   111   am
   122    95    97   ar
   123   133   134    1
   124   134   135    1
   125   134   136    1
   126   132   131    2
   127    94    96   ar
   128   150   149    1
   129   150   151    1
   130   158   155    1
   131   149   139   am
   132    97    96   ar
   133   141   142    1
   134   141   138    1
   135   111   112    2
   136   111   110    1
   137   113   110    1
   138   113   114    1
   139   139   138    1
   140   139   140    2
   141   178   177    1
   142   137   138    1
   143   172   171    1
   144   142   144   ar
   145   142   143   ar
   146   144   146   ar
   147   151   152    2
   148   110   109    1
   149   177   174    1
   150   163   160    1
   151   155   156    1
   152   155   154    1
   153   156   157    2
   154   143   145   ar
   155   146   147   ar
   156   171   170    1
   157   162   161    2
   158   176   175    2
   159   161   160    1
   160   161   164   am
   161   160   159    1
   162   168   165    1
   163   168   169    1
   164   145   147   ar
   165   175   174    1
   166   147   148    1
   167   174   173    1
   168   165   164    1
   169   165   166    1
   170   170   169    1
   171   166   167    2
