@<TRIPOS>MOLECULE
tmp/1lnmA00.pdb
 162 156 0 0 0
SMALL
GASTEIGER

@<TRIPOS>ATOM
      1  N         20.8900  -23.3730   39.0600 N.3    24  GLN24      -0.1245
      2  CA        20.2810  -24.3370   39.9670 C.3    24  GLN24       0.1566
      3  C         21.2970  -25.2050   40.6900 C.2    24  GLN24       0.2260
      4  O         21.6950  -26.2350   40.1910 O.2    24  GLN24      -0.2867
      5  CB        19.2990  -25.2230   39.1760 C.3    24  GLN24       0.0367
      6  CG        18.2420  -25.8840   40.0170 C.3    24  GLN24       0.0905
      7  CD        17.2710  -26.6730   39.1740 C.2    24  GLN24       0.2608
      8  OE1       16.4880  -26.0570   38.3980 O.2    24  GLN24      -0.2717
      9  NE2       17.3460  -28.0130   39.2870 N.am   24  GLN24      -0.0878
     10  N         13.0610  -33.7310   40.8740 N.3    31  HIS31      -0.1241
     11  CA        13.2000  -32.5280   40.0780 C.3    31  HIS31       0.1621
     12  C         14.3220  -32.6380   39.0700 C.2    31  HIS31       0.2264
     13  O         14.1160  -32.2680   37.9120 O.2    31  HIS31      -0.2867
     14  CB        13.3450  -31.3000   40.9820 C.3    31  HIS31       0.0745
     15  CG        13.1670  -29.9810   40.2950 C.ar   31  HIS31       0.0817
     16  ND1       14.2040  -29.2700   39.7130 N.ar   31  HIS31      -0.2268
     17  CD2       12.0720  -29.1900   40.2010 C.ar   31  HIS31       0.1154
     18  CE1       13.7360  -28.1210   39.2490 C.ar   31  HIS31       0.1986
     19  NE2       12.4440  -28.0450   39.5400 N.ar   31  HIS31      -0.2212
     20  N         13.0940  -32.2640   35.2070 N.3    35  TYR35      -0.1241
     21  CA        13.4810  -31.0340   34.5690 C.3    35  TYR35       0.1605
     22  C         14.9780  -30.8850   34.2300 C.2    35  TYR35       0.2264
     23  O         15.3550  -29.8910   33.6860 O.2    35  TYR35      -0.2867
     24  CB        12.9550  -29.9090   35.5020 C.3    35  TYR35       0.0534
     25  CG        11.4850  -30.1790   35.7950 C.ar   35  TYR35      -0.0201
     26  CD1       11.0680  -30.5310   37.0830 C.ar   35  TYR35      -0.0009
     27  CD2       10.5300  -30.1010   34.7960 C.ar   35  TYR35      -0.0009
     28  CE1        9.7570  -30.8410   37.3570 C.ar   35  TYR35       0.0417
     29  CE2        9.1690  -30.3930   35.0650 C.ar   35  TYR35       0.0417
     30  CZ         8.8030  -30.7500   36.3470 C.ar   35  TYR35       0.1957
     31  OH         7.5080  -31.0690   36.6690 O.3    35  TYR35      -0.2866
     32  N         19.3820  -20.6850   34.2700 N.3    41  ALA41      -0.1245
     33  CA        18.3070  -19.9350   33.6090 C.3    41  ALA41       0.1562
     34  C         18.7110  -18.4780   33.4280 C.2    41  ALA41       0.2260
     35  O         19.3950  -17.9530   34.2660 O.2    41  ALA41      -0.2867
     36  CB        17.0130  -20.1050   34.4130 C.3    41  ALA41       0.0290
     37  N         16.9930  -14.8290   33.0330 N.3    43  TYR43      -0.1241
     38  CA        15.7580  -14.0590   33.2290 C.3    43  TYR43       0.1605
     39  C         15.8640  -12.6760   32.6310 C.2    43  TYR43       0.2264
     40  O         16.9200  -12.0200   32.7050 O.2    43  TYR43      -0.2867
     41  CB        15.5340  -13.8310   34.6960 C.3    43  TYR43       0.0534
     42  CG        15.3690  -15.0720   35.4610 C.ar   43  TYR43      -0.0201
     43  CD1       16.3530  -15.4820   36.3230 C.ar   43  TYR43      -0.0009
     44  CD2       14.2340  -15.8460   35.3060 C.ar   43  TYR43      -0.0009
     45  CE1       16.1970  -16.6640   37.0550 C.ar   43  TYR43       0.0417
     46  CE2       14.0810  -17.0090   36.0220 C.ar   43  TYR43       0.0417
     47  CZ        15.0620  -17.4330   36.8970 C.ar   43  TYR43       0.1957
     48  OH        14.8690  -18.6170   37.6000 O.3    43  TYR43      -0.2866
     49  N         11.7790  -16.3440   30.8800 N.3    52  VAL52      -0.1245
     50  CA        12.7310  -17.3380   31.3250 C.3    52  VAL52       0.1561
     51  C         13.1930  -18.1470   30.1290 C.2    52  VAL52       0.2260
     52  O         12.4140  -18.6150   29.2910 O.2    52  VAL52      -0.2867
     53  CB        12.1770  -18.2640   32.4670 C.3    52  VAL52       0.0252
     54  CG1       13.3330  -18.9390   33.2090 C.3    52  VAL52       0.0019
     55  CG2       11.3280  -17.5090   33.3960 C.3    52  VAL52       0.0019
     56  N         15.8500  -21.3630   29.8520 N.3    54  ARG54      -0.1245
     57  CA        16.5340  -22.2910   30.7020 C.3    54  ARG54       0.1563
     58  C         17.1230  -23.4620   29.9160 C.2    54  ARG54       0.2260
     59  O         16.5710  -24.0280   28.9610 O.2    54  ARG54      -0.2867
     60  CB        15.4940  -22.7880   31.6860 C.3    54  ARG54       0.0307
     61  CG        16.0310  -23.8170   32.6360 C.3    54  ARG54       0.0489
     62  CD        14.9330  -24.2700   33.5420 C.3    54  ARG54       0.2205
     63  NE        15.4490  -25.0750   34.6290 N.pl3  54  ARG54      -0.0865
     64  CZ        15.3040  -26.3950   34.7350 C.cat  54  ARG54       0.5346
     65  NH1       14.6900  -27.1260   33.8120 N.pl3  54  ARG54       0.1354
     66  NH2       15.7730  -26.9860   35.8230 N.pl3  54  ARG54       0.1354
     67  N          4.1170  -19.6430   36.8850 N.3    82  HIS82      -0.1241
     68  CA         5.1290  -19.8700   35.8740 C.3    82  HIS82       0.1621
     69  C          4.6370  -20.8250   34.8230 C.2    82  HIS82       0.2264
     70  O          4.1000  -21.8660   35.1850 O.2    82  HIS82      -0.2867
     71  CB         6.2220  -20.5310   36.6160 C.3    82  HIS82       0.0745
     72  CG         7.6190  -20.2520   36.1790 C.ar   82  HIS82       0.0817
     73  ND1        8.2460  -20.9930   35.2070 N.ar   82  HIS82      -0.2268
     74  CD2        8.5610  -19.4390   36.6960 C.ar   82  HIS82       0.1154
     75  CE1        9.4950  -20.5790   35.0870 C.ar   82  HIS82       0.1986
     76  NE2        9.7100  -19.6560   35.9910 N.ar   82  HIS82      -0.2212
     77  N          5.8340  -23.1970   31.4640 N.3    84  TYR84      -0.1241
     78  CA         7.0110  -24.0110   31.1610 C.3    84  TYR84       0.1605
     79  C          6.7820  -24.7500   29.8570 C.2    84  TYR84       0.2264
     80  O          5.9490  -25.6740   29.8300 O.2    84  TYR84      -0.2867
     81  CB         7.2310  -25.0410   32.2870 C.3    84  TYR84       0.0534
     82  CG         8.4170  -25.9690   32.1340 C.ar   84  TYR84      -0.0201
     83  CD1        9.7350  -25.5020   32.2610 C.ar   84  TYR84      -0.0009
     84  CD2        8.2380  -27.3320   31.8930 C.ar   84  TYR84      -0.0009
     85  CE1       10.8410  -26.3520   32.1470 C.ar   84  TYR84       0.0417
     86  CE2        9.3500  -28.2030   31.7840 C.ar   84  TYR84       0.0417
     87  CZ        10.6500  -27.7210   31.8970 C.ar   84  TYR84       0.1957
     88  OH        11.6920  -28.6000   31.7690 O.3    84  TYR84      -0.2866
     89  N          3.2600  -26.4010   30.1180 N.3    91  GLN91      -0.1231
     90  CA         2.6930  -26.7410   31.4170 C.3    91  GLN91       0.1698
     91  C          2.7100  -25.4210   32.1360 C.2    91  GLN91       0.2592
     92  O          3.4860  -24.5100   31.7380 O.2    91  GLN91      -0.2718
     93  CB         3.5250  -27.7950   32.1450 C.3    91  GLN91       0.0381
     94  CG         3.3050  -29.2480   31.6870 C.3    91  GLN91       0.0905
     95  CD         4.3980  -30.1350   32.2290 C.2    91  GLN91       0.2608
     96  OE1        5.4890  -30.1920   31.6560 O.2    91  GLN91      -0.2717
     97  NE2        4.1280  -30.7970   33.3470 N.am   91  GLN91      -0.0878
     98  N          1.8610  -25.3220   33.1590 N.am   92  GLU92      -0.1965
     99  CA         1.7730  -24.1300   33.9830 C.3    92  GLU92       0.1737
    100  C          1.3860  -24.4560   35.4020 C.2    92  GLU92       0.2655
    101  O          0.7710  -25.4810   35.6640 O.2    92  GLU92      -0.2711
    102  CB         0.8810  -23.0630   33.3870 C.3    92  GLU92       0.0429
    103  CG        -0.5970  -23.2730   33.6390 C.3    92  GLU92       0.1163
    104  CD        -1.4230  -22.3320   32.8000 C.2    92  GLU92       0.3649
    105  OE1       -2.5890  -22.7230   32.5710 O.co2  92  GLU92      -0.2457
    106  OE2       -0.9720  -21.2280   32.3910 O.co2  92  GLU92      -0.2457
    107  N          1.7700  -23.5500   36.2880 N.am   93  GLY93      -0.1730
    108  CA         1.5380  -23.7330   37.7010 C.2    93  GLY93       0.1340
    109  C          1.9870  -22.6230   38.5750 C.2    93  GLY93       0.2521
    110  O          2.6190  -21.6660   38.1410 O.2    93  GLY93      -0.2816
    111  N          4.0110  -21.9150   42.2570 N.3    95  PHE95      -0.1241
    112  CA         4.8600  -22.3960   43.3420 C.3    95  PHE95       0.1605
    113  C          5.1080  -21.2650   44.3180 C.2    95  PHE95       0.2264
    114  O          4.7390  -20.1080   44.1160 O.2    95  PHE95      -0.2867
    115  CB         6.1640  -22.9730   42.7790 C.3    95  PHE95       0.0534
    116  CG         7.1520  -21.9600   42.2920 C.ar   95  PHE95      -0.0203
    117  CD1        8.1030  -21.4410   43.1700 C.ar   95  PHE95      -0.0042
    118  CD2        7.1880  -21.5780   40.9180 C.ar   95  PHE95      -0.0042
    119  CE1        9.0370  -20.4870   42.7740 C.ar   95  PHE95      -0.0003
    120  CE2        8.1110  -20.6510   40.5210 C.ar   95  PHE95      -0.0003
    121  CZ         9.0310  -20.0850   41.4360 C.ar   95  PHE95      -0.0000
    122  N          7.0860  -26.8070   45.3290 N.3   110  PHE110     -0.1241
    123  CA         5.8130  -27.2150   44.7560 C.3   110  PHE110      0.1605
    124  C          5.4090  -28.5650   45.3400 C.2   110  PHE110      0.2264
    125  O          6.2470  -29.4390   45.5050 O.2   110  PHE110     -0.2867
    126  CB         6.0400  -27.2970   43.2450 C.3   110  PHE110      0.0534
    127  CG         4.8580  -27.7890   42.4730 C.ar  110  PHE110     -0.0203
    128  CD1        4.8070  -29.1080   42.0280 C.ar  110  PHE110     -0.0042
    129  CD2        3.8110  -26.9450   42.1840 C.ar  110  PHE110     -0.0042
    130  CE1        3.7210  -29.5670   41.3140 C.ar  110  PHE110     -0.0003
    131  CE2        2.7000  -27.4120   41.4820 C.ar  110  PHE110     -0.0003
    132  CZ         2.6600  -28.7190   41.0520 C.ar  110  PHE110     -0.0000
    133  N          8.5680  -31.0660   45.4930 N.3   119  LEU119     -0.1245
    134  CA         9.6760  -30.8130   44.5880 C.3   119  LEU119      0.1561
    135  C         10.2690  -29.5790   45.1730 C.2   119  LEU119      0.2260
    136  O          9.5630  -28.6530   45.4980 O.2   119  LEU119     -0.2867
    137  CB         9.2410  -30.4780   43.1550 C.3   119  LEU119      0.0270
    138  CG         8.7240  -31.6390   42.2870 C.3   119  LEU119      0.0019
    139  CD1        8.0960  -31.3440   40.9100 C.3   119  LEU119      0.0001
    140  CD2        9.7710  -32.8240   42.1350 C.3   119  LEU119      0.0001
    141  N         13.6860  -26.9950   44.6210 N.3   121  TRP121     -0.1241
    142  CA        14.8830  -26.5630   43.9220 C.3   121  TRP121      0.1605
    143  C         15.4700  -25.2340   44.4700 C.2   121  TRP121      0.2264
    144  O         14.7950  -24.3450   44.9890 O.2   121  TRP121     -0.2867
    145  CB        14.5250  -26.4050   42.4340 C.3   121  TRP121      0.0550
    146  CG        13.5420  -25.3560   42.1380 C.ar  121  TRP121      0.0003
    147  CD1       13.7950  -24.1100   41.6970 C.ar  121  TRP121      0.0946
    148  CD2       12.1350  -25.4810   42.1970 C.ar  121  TRP121      0.0152
    149  NE1       12.6270  -23.4230   41.4840 N.ar  121  TRP121     -0.2442
    150  CE2       11.5850  -24.2500   41.7710 C.ar  121  TRP121      0.0810
    151  CE3       11.2810  -26.5220   42.5280 C.ar  121  TRP121      0.0012
    152  CZ2       10.2120  -24.0080   41.7290 C.ar  121  TRP121      0.0191
    153  CZ3        9.8840  -26.2620   42.4820 C.ar  121  TRP121      0.0001
    154  CH2        9.3940  -25.0420   42.0900 C.ar  121  TRP121      0.0015
    155  N         17.9400  -21.9880   43.6030 N.3   123  LEU123     -0.1245
    156  CA        18.6740  -21.1380   42.6550 C.3   123  LEU123      0.1561
    157  C         19.6240  -20.1640   43.3650 C.2   123  LEU123      0.2260
    158  O         19.3250  -19.6430   44.4470 O.2   123  LEU123     -0.2867
    159  CB        17.7120  -20.3490   41.7860 C.3   123  LEU123      0.0270
    160  CG        16.7230  -21.2120   40.9880 C.3   123  LEU123      0.0019
    161  CD1       15.5290  -20.3890   40.5880 C.3   123  LEU123      0.0001
    162  CD2       17.4290  -21.8150   39.7970 C.3   123  LEU123      0.0001
@<TRIPOS>BOND
     1    59    58    2
     2    52    51    2
     3    80    79    2
     4    56    57    1
     5    79    78    1
     6    58    57    1
     7    89    90    1
     8    51    50    1
     9    57    60    1
    10    49    50    1
    11    78    77    1
    12    78    81    1
    13    50    53    1
    14    90    91    1
    15    90    93    1
    16    96    95    2
    17    60    61    1
    18    94    93    1
    19    94    95    1
    20    92    91    2
    21    88    87    1
    22    86    84   ar
    23    86    87   ar
    24    84    82   ar
    25    87    85   ar
    26    82    83   ar
    27    82    81    1
    28    91    98   am
    29    85    83   ar
    30    95    97   am
    31   106   104   ar
    32    53    54    1
    33    53    55    1
    34   105   104   ar
    35    39    40    2
    36    39    38    1
    37    61    62    1
    38   104   103    1
    39    37    38    1
    40    98    99    1
    41    38    41    1
    42   102   103    1
    43   102    99    1
    44    34    33    1
    45    34    35    2
    46    62    63    1
    47    33    32    1
    48    33    36    1
    49    23    22    2
    50    65    64    1
    51    99   100    1
    52    22    21    1
    53    21    20    1
    54    21    24    1
    55    63    64    2
    56    41    42    1
    57    64    66    1
    58    27    29   ar
    59    27    25   ar
    60    69    70    2
    61    69    68    1
    62    29    30   ar
    63    75    73   ar
    64    75    76   ar
    65    73    72   ar
    66    44    42   ar
    67    44    46   ar
    68   100   101    2
    69   100   107    1
    70    42    43   ar
    71    24    25    1
    72    25    26   ar
    73    68    71    1
    74    68    67    1
    75    76    74   ar
    76    46    47   ar
    77    72    71    1
    78    72    74   ar
    79   107   108    2
    80    43    45   ar
    81    30    31    1
    82    30    28   ar
    83    47    45   ar
    84    47    48    1
    85    26    28   ar
    86   108   109    1
    87    13    12    2
    88   110   109    2
    89     8     7    2
    90     1     2    1
    91    12    11    1
    92     7     9   am
    93     7     6    1
    94     5     2    1
    95     5     6    1
    96    18    19   ar
    97    18    16   ar
    98    19    17   ar
    99    16    15   ar
   100   162   160    1
   101     2     3    1
   102    11    10    1
   103    11    14    1
   104     4     3    2
   105    17    15   ar
   106    15    14    1
   107   120   118   ar
   108   120   121   ar
   109   161   160    1
   110   139   138    1
   111   118   116   ar
   112   160   159    1
   113   132   130   ar
   114   132   131   ar
   115   130   128   ar
   116   121   119   ar
   117   131   129   ar
   118   149   147   ar
   119   149   150   ar
   120   147   146   ar
   121   152   150   ar
   122   152   154   ar
   123   150   148   ar
   124   159   156    1
   125   128   127   ar
   126   154   153   ar
   127   140   138    1
   128   146   148   ar
   129   146   145    1
   130   129   127   ar
   131   148   151   ar
   132   111   112    1
   133   138   137    1
   134   116   115    1
   135   116   117   ar
   136   145   142    1
   137   127   126    1
   138   153   151   ar
   139   156   157    1
   140   156   155    1
   141   119   117   ar
   142   115   112    1
   143   137   134    1
   144   126   123    1
   145   112   113    1
   146   157   158    2
   147   142   143    1
   148   142   141    1
   149   114   113    2
   150   143   144    2
   151   134   135    1
   152   134   133    1
   153   123   122    1
   154   123   124    1
   155   135   136    2
   156   124   125    2
