@<TRIPOS>MOLECULE
tmp/1lnxA01.pdb
 74 70 0 0 0
SMALL
GASTEIGER

@<TRIPOS>ATOM
      1  N         62.7510   17.2290   95.8010 N.3     3  ALA3       -0.1245
      2  CA        62.3830   17.1380   97.2040 C.3     3  ALA3        0.1562
      3  C         61.8240   15.7620   97.4490 C.2     3  ALA3        0.2260
      4  O         61.0940   15.2270   96.6330 O.2     3  ALA3       -0.2867
      5  CB        61.3470   18.2060   97.5700 C.3     3  ALA3        0.0290
      6  N         59.9120   14.9150  100.2060 N.3     5  LEU5       -0.1231
      7  CA        58.8330   14.9120  101.2210 C.3     5  LEU5        0.1693
      8  C         57.6430   14.0530  100.7740 C.2     5  LEU5        0.2593
      9  O         57.0860   13.3040  101.5600 O.2     5  LEU5       -0.2718
     10  CB        58.3470   16.3340  101.5160 C.3     5  LEU5        0.0284
     11  CG        59.2470   17.1370  102.4760 C.3     5  LEU5        0.0019
     12  CD1       60.6480   17.3520  101.8620 C.3     5  LEU5        0.0001
     13  CD2       58.5970   18.4730  102.7670 C.3     5  LEU5        0.0001
     14  N         57.2420   14.1640   99.5090 N.am    6  GLY6       -0.1942
     15  CA        56.1290   13.3510   99.0550 C.3     6  GLY6        0.2014
     16  C         56.4600   11.8730   99.1220 C.2     6  GLY6        0.2638
     17  O         55.6090   11.0350   99.4560 O.2     6  GLY6       -0.2714
     18  N         57.7080   11.5410   98.8060 N.am    7  ALA7       -0.1977
     19  CA        58.1270   10.1460   98.8530 C.3     7  ALA7        0.1597
     20  C         58.0280    9.6240  100.2940 C.2     7  ALA7        0.2287
     21  O         57.6490    8.4750  100.5140 O.2     7  ALA7       -0.2864
     22  CB        59.5540    9.9990   98.3220 C.3     7  ALA7        0.0319
     23  N         55.9240   10.6170  102.7130 N.3     9  LEU9       -0.1231
     24  CA        54.5160   10.3890  103.0070 C.3     9  LEU9        0.1693
     25  C         54.0360    9.0690  102.3450 C.2     9  LEU9        0.2591
     26  O         53.3500    8.2570  102.9800 O.2     9  LEU9       -0.2718
     27  CB        53.6720   11.5830  102.4880 C.3     9  LEU9        0.0284
     28  CG        53.8960   12.9680  103.1270 C.3     9  LEU9        0.0019
     29  CD1       52.8230   13.9860  102.6380 C.3     9  LEU9        0.0001
     30  CD2       53.7980   12.8220  104.6410 C.3     9  LEU9        0.0001
     31  N         54.3870    8.8680  101.0680 N.am   10  GLN10      -0.1979
     32  CA        53.9950    7.6490  100.3500 C.3    10  GLN10       0.1601
     33  C         54.4710    6.4490  101.1470 C.2    10  GLN10       0.2287
     34  O         53.7280    5.4700  101.3070 O.2    10  GLN10      -0.2864
     35  CB        54.6020    7.6080   98.9450 C.3    10  GLN10       0.0394
     36  CG        53.9530    8.6090   97.9850 C.3    10  GLN10       0.0908
     37  CD        54.6310    8.6670   96.6070 C.2    10  GLN10       0.2608
     38  OE1       55.3670    7.7440   96.2100 O.2    10  GLN10      -0.2717
     39  NE2       54.3730    9.7480   95.8690 N.am   10  GLN10      -0.0878
     40  N         46.5470   10.6510  101.1860 N.3    34  PHE34      -0.1227
     41  CA        46.9650   12.0560  101.2940 C.3    34  PHE34       0.1736
     42  C         47.0690   12.6990   99.9180 C.2    34  PHE34       0.2595
     43  O         47.1320   11.9940   98.9000 O.2    34  PHE34      -0.2718
     44  CB        48.3250   12.1830  101.9980 C.3    34  PHE34       0.0547
     45  CG        49.4790   11.6580  101.1880 C.ar   34  PHE34      -0.0202
     46  CD1       49.8490   10.3160  101.2650 C.ar   34  PHE34      -0.0042
     47  CD2       50.1610   12.4900  100.3070 C.ar   34  PHE34      -0.0042
     48  CE1       50.8750    9.8090  100.4700 C.ar   34  PHE34      -0.0003
     49  CE2       51.1910   11.9980   99.5020 C.ar   34  PHE34      -0.0003
     50  CZ        51.5510   10.6490   99.5800 C.ar   34  PHE34      -0.0000
     51  N         47.0830   14.0320   99.8730 N.am   35  ASP35      -0.1960
     52  CA        47.2240   14.7130   98.5810 C.3    35  ASP35       0.1840
     53  C         48.3790   15.6980   98.6620 C.2    35  ASP35       0.2621
     54  O         49.0290   15.8230   99.7070 O.2    35  ASP35      -0.2715
     55  CB        45.9260   15.4140   98.1420 C.3    35  ASP35       0.1450
     56  CG        45.5000   16.5380   99.0960 C.2    35  ASP35       0.3671
     57  OD1       46.3630   17.0820   99.8140 O.co2  35  ASP35      -0.2456
     58  OD2       44.3000   16.8760   99.1150 O.co2  35  ASP35      -0.2456
     59  N         48.6500   16.3810   97.5510 N.am   36  GLN36      -0.1977
     60  CA        49.7550   17.3320   97.4920 C.3    36  GLN36       0.1601
     61  C         49.6170   18.4800   98.5080 C.2    36  GLN36       0.2287
     62  O         50.6100   19.1070   98.8660 O.2    36  GLN36      -0.2864
     63  CB        49.8530   17.9050   96.0800 C.3    36  GLN36       0.0394
     64  CG        48.5080   18.4130   95.5820 C.3    36  GLN36       0.0908
     65  CD        48.3970   18.4600   94.0670 C.2    36  GLN36       0.2608
     66  OE1       48.9670   19.3400   93.4080 O.2    36  GLN36      -0.2717
     67  NE2       47.6500   17.5130   93.5060 N.am   36  GLN36      -0.0878
     68  N         48.6960   18.1220  101.5340 N.3    38  VAL38      -0.1245
     69  CA        48.8660   17.5270  102.8450 C.3    38  VAL38       0.1561
     70  C         47.5330   17.3580  103.5850 C.2    38  VAL38       0.2260
     71  O         47.4940   17.3100  104.8030 O.2    38  VAL38      -0.2867
     72  CB        49.8770   18.3070  103.7250 C.3    38  VAL38       0.0252
     73  CG1       50.2070   17.4880  104.9530 C.3    38  VAL38       0.0019
     74  CG2       51.1790   18.5910  102.9460 C.3    38  VAL38       0.0019
@<TRIPOS>BOND
     1    66    65    2
     2    67    65   am
     3    65    64    1
     4    64    63    1
     5     1     2    1
     6    39    37   am
     7    63    60    1
     8    38    37    2
     9    37    36    1
    10     4     3    2
    11     2     3    1
    12     2     5    1
    13    60    59    1
    14    60    61    1
    15    59    53   am
    16    36    35    1
    17    55    52    1
    18    55    56    1
    19    22    19    1
    20    61    62    2
    21    52    53    1
    22    52    51    1
    23    53    54    2
    24    18    19    1
    25    18    16   am
    26    19    20    1
    27    43    42    2
    28    35    32    1
    29    15    16    1
    30    15    14    1
    31    56    58   ar
    32    56    57   ar
    33    16    17    2
    34    49    50   ar
    35    49    47   ar
    36    14     8   am
    37    50    48   ar
    38    51    42   am
    39    42    41    1
    40     6     7    1
    41    20    21    2
    42    47    45   ar
    43    32    31    1
    44    32    33    1
    45    48    46   ar
    46     8     7    1
    47     8     9    2
    48    31    25   am
    49    33    34    2
    50    40    41    1
    51    45    46   ar
    52    45    44    1
    53     7    10    1
    54    41    44    1
    55    10    11    1
    56    68    69    1
    57    12    11    1
    58    25    26    2
    59    25    24    1
    60    11    13    1
    61    27    24    1
    62    27    28    1
    63    29    28    1
    64    23    24    1
    65    69    70    1
    66    69    72    1
    67    74    72    1
    68    28    30    1
    69    70    71    2
    70    72    73    1
