@<TRIPOS>MOLECULE
tmp/1lnzB00.pdb
 105 100 0 0 0
SMALL
GASTEIGER

@<TRIPOS>ATOM
      1  N          6.5760   72.1210   67.7950 N.3   162  PRO162     -0.2102
      2  CA         6.7530   71.8870   69.2200 C.3   162  PRO162      0.1504
      3  C          5.7640   70.8750   69.7150 C.2   162  PRO162      0.2576
      4  O          4.6270   70.8270   69.2600 O.2   162  PRO162     -0.2718
      5  CB         6.5010   73.2600   69.8360 C.3   162  PRO162      0.0282
      6  CG         6.8730   74.1910   68.7470 C.3   162  PRO162      0.0208
      7  CD         6.2150   73.5230   67.5670 C.3   162  PRO162      0.0893
      8  N          6.2300   70.0730   70.6630 N.am  163  SER163     -0.1938
      9  CA         5.4570   69.0290   71.3120 C.3   163  SER163      0.2055
     10  C          5.0570   67.8820   70.3830 C.2   163  SER163      0.2643
     11  O          4.0950   67.1570   70.6330 O.2   163  SER163     -0.2714
     12  CB         4.2430   69.6550   71.9650 C.3   163  SER163      0.2130
     13  OG         3.8840   68.8850   73.0970 O.3   163  SER163     -0.2179
     14  N          5.8300   67.7120   69.3200 N.am  164  VAL164     -0.1963
     15  CA         5.6040   66.6580   68.3480 C.3   164  VAL164      0.1727
     16  C          6.2720   65.3550   68.8360 C.2   164  VAL164      0.2617
     17  O          5.9120   64.2440   68.4210 O.2   164  VAL164     -0.2715
     18  CB         6.1850   67.0920   67.0070 C.3   164  VAL164      0.0290
     19  CG1        6.3470   65.9060   66.0800 C.3   164  VAL164      0.0023
     20  CG2        5.2830   68.1290   66.4020 C.3   164  VAL164      0.0023
     21  N          7.2460   65.5060   69.7280 N.am  165  GLY165     -0.1940
     22  CA         7.9310   64.3570   70.2860 C.3   165  GLY165      0.2014
     23  C          9.4210   64.3880   70.0240 C.2   165  GLY165      0.2639
     24  O         10.1250   63.4290   70.3340 O.2   165  GLY165     -0.2714
     25  N          9.9090   65.4820   69.4480 N.am  166  LYS166     -0.1963
     26  CA        11.3230   65.6000   69.1440 C.3   166  LYS166      0.1728
     27  C         12.1790   65.1540   70.3010 C.2   166  LYS166      0.2617
     28  O         12.9200   64.1850   70.1620 O.2   166  LYS166     -0.2715
     29  CB        11.6590   67.0280   68.7690 C.3   166  LYS166      0.0311
     30  CG        11.1290   67.4060   67.4160 C.3   166  LYS166      0.0038
     31  CD        11.3450   68.8800   67.1610 C.3   166  LYS166      0.0206
     32  CE        10.4610   69.7090   68.0640 C.3   166  LYS166      0.1093
     33  NZ        10.7010   71.1400   67.8310 N.3   166  LYS166     -0.1314
     34  N         12.0640   65.8350   71.4390 N.am  167  SER167     -0.1936
     35  CA        12.8420   65.4870   72.6420 C.3   167  SER167      0.2055
     36  C         12.6450   64.0460   73.1410 C.2   167  SER167      0.2643
     37  O         13.5960   63.3920   73.5950 O.2   167  SER167     -0.2714
     38  CB        12.5100   66.4470   73.7790 C.3   167  SER167      0.2130
     39  OG        12.8710   67.7770   73.4260 O.3   167  SER167     -0.2179
     40  N         11.4180   63.5440   73.0520 N.am  168  THR168     -0.1950
     41  CA        11.1540   62.2020   73.5040 C.3   168  THR168      0.1897
     42  C         11.9060   61.1970   72.6990 C.2   168  THR168      0.2313
     43  O         12.4610   60.2350   73.2290 O.2   168  THR168     -0.2863
     44  CB         9.6950   61.8640   73.4050 C.3   168  THR168      0.1794
     45  OG1        8.9320   62.8070   74.1650 O.3   168  THR168     -0.2208
     46  CG2        9.4530   60.4700   73.9640 C.3   168  THR168      0.0378
     47  N         18.5900   68.1650   68.1850 N.3   196  ASP196     -0.1239
     48  CA        17.3200   68.8730   68.0120 C.3   196  ASP196      0.1674
     49  C         17.6850   70.2100   67.3550 C.2   196  ASP196      0.2266
     50  O         17.9730   71.1870   68.0660 O.2   196  ASP196     -0.2867
     51  CB        16.6740   69.1230   69.3900 C.3   196  ASP196      0.1410
     52  CG        15.1310   69.2620   69.3320 C.2   196  ASP196      0.3668
     53  OD1       14.5980   70.0480   68.5130 O.co2 196  ASP196     -0.2456
     54  OD2       14.4500   68.5890   70.1340 O.co2 196  ASP196     -0.2456
     55  N         -3.5530   65.7150   67.4480 N.3   224  LEU224     -0.1245
     56  CA        -4.2390   66.0270   68.7040 C.3   224  LEU224      0.1561
     57  C         -4.3300   67.5400   68.8950 C.2   224  LEU224      0.2260
     58  O         -5.1480   68.0210   69.6690 O.2   224  LEU224     -0.2867
     59  CB        -3.4760   65.4260   69.8930 C.3   224  LEU224      0.0270
     60  CG        -3.5940   63.9230   70.1700 C.3   224  LEU224      0.0019
     61  CD1       -2.5940   63.5200   71.2640 C.3   224  LEU224      0.0001
     62  CD2       -5.0380   63.5890   70.5890 C.3   224  LEU224      0.0001
     63  N          5.1030   60.3320   64.2170 N.3   257  ASN257     -0.1225
     64  CA         5.0940   60.0050   65.6380 C.3   257  ASN257      0.1785
     65  C          3.6930   59.9640   66.2050 C.2   257  ASN257      0.2597
     66  O          2.7450   60.4050   65.5630 O.2   257  ASN257     -0.2718
     67  CB         5.9180   61.0370   66.4010 C.3   257  ASN257      0.1169
     68  CG         6.1570   60.6410   67.8410 C.2   257  ASN257      0.2627
     69  OD1        6.3060   59.4540   68.1380 O.2   257  ASN257     -0.2716
     70  ND2        6.2050   61.6270   68.7430 N.am  257  ASN257     -0.0877
     71  N          3.5680   59.4180   67.4080 N.am  258  LYS258     -0.1980
     72  CA         2.2810   59.3100   68.0840 C.3   258  LYS258      0.1596
     73  C          1.3150   58.4270   67.3250 C.2   258  LYS258      0.2287
     74  O          0.1210   58.6440   67.3650 O.2   258  LYS258     -0.2864
     75  CB         1.6640   60.6900   68.2870 C.3   258  LYS258      0.0298
     76  CG         2.6200   61.6660   68.9360 C.3   258  LYS258      0.0038
     77  CD         1.9230   62.8360   69.5910 C.3   258  LYS258      0.0206
     78  CE         2.9320   63.6570   70.3740 C.3   258  LYS258      0.1093
     79  NZ         2.3350   64.7110   71.2210 N.3   258  LYS258     -0.1314
     80  N          0.4470   55.7460   68.0270 N.3   259  ASP259     -0.1239
     81  CA        -0.2860   55.0040   69.0320 C.3   259  ASP259      0.1674
     82  C         -1.6930   55.5950   69.2430 C.2   259  ASP259      0.2266
     83  O         -2.6370   54.8690   69.5960 O.2   259  ASP259     -0.2867
     84  CB         0.5350   54.9830   70.3260 C.3   259  ASP259      0.1410
     85  CG         0.8120   56.3690   70.8720 C.2   259  ASP259      0.3668
     86  OD1        0.3280   56.6310   71.9930 O.co2 259  ASP259     -0.2456
     87  OD2        1.4960   57.1840   70.2140 O.co2 259  ASP259     -0.2456
     88  N          6.5950   55.6560   67.4310 N.3   283  SER283     -0.1202
     89  CA         5.9680   56.0700   68.6650 C.3   283  SER283      0.2020
     90  C          7.0900   56.1610   69.6700 C.2   283  SER283      0.2619
     91  O          7.5700   55.1470   70.1650 O.2   283  SER283     -0.2717
     92  CB         4.9570   55.0370   69.1250 C.3   283  SER283      0.2103
     93  OG         4.1860   55.5400   70.1970 O.3   283  SER283     -0.2182
     94  N          7.5140   57.3850   69.9590 N.am  284  ALA284     -0.1965
     95  CA         8.5990   57.5990   70.9040 C.3   284  ALA284      0.1728
     96  C          8.3380   56.9810   72.2690 C.2   284  ALA284      0.2616
     97  O          9.2780   56.6050   72.9600 O.2   284  ALA284     -0.2715
     98  CB         8.8810   59.0650   71.0430 C.3   284  ALA284      0.0334
     99  N          7.0700   56.8560   72.6510 N.am  285  VAL285     -0.1977
    100  CA         6.7190   56.2970   73.9520 C.3   285  VAL285      0.1596
    101  C          6.9040   54.7810   74.0090 C.2   285  VAL285      0.2287
    102  O          7.7220   54.2820   74.7970 O.2   285  VAL285     -0.2864
    103  CB         5.2530   56.6660   74.3390 C.3   285  VAL285      0.0276
    104  CG1        4.8100   55.8880   75.5680 C.3   285  VAL285      0.0022
    105  CG2        5.1560   58.1500   74.6370 C.3   285  VAL285      0.0022
@<TRIPOS>BOND
     1    63    64    1
     2    66    65    2
     3    64    65    1
     4    64    67    1
     5    19    18    1
     6    65    71   am
     7    67    68    1
     8    20    18    1
     9    18    15    1
    10    31    30    1
    11    31    32    1
    12    73    74    2
    13    73    72    1
    14    49    48    1
    15    49    50    2
    16    71    72    1
    17    30    29    1
    18    88    89    1
    19    55    56    1
    20     7     1    1
    21     7     6    1
    22     1     2    1
    23    33    32    1
    24    68    69    2
    25    68    70   am
    26    48    47    1
    27    48    51    1
    28    80    81    1
    29    72    75    1
    30    75    76    1
    31    15    16    1
    32    15    14    1
    33    17    16    2
    34    53    52   ar
    35    89    92    1
    36    89    90    1
    37    56    57    1
    38    56    59    1
    39     6     5    1
    40    29    26    1
    41    16    21   am
    42    57    58    2
    43    76    77    1
    44    81    82    1
    45    81    84    1
    46    92    93    1
    47    26    25    1
    48    26    27    1
    49     2     3    1
    50     2     5    1
    51    82    83    2
    52     4     3    2
    53    14    10   am
    54    52    51    1
    55    52    54   ar
    56    25    23   am
    57    77    78    1
    58    90    94   am
    59    90    91    2
    60     3     8   am
    61    21    22    1
    62    59    60    1
    63    94    95    1
    64    23    22    1
    65    23    24    2
    66    28    27    2
    67    60    62    1
    68    60    61    1
    69    87    85   ar
    70    27    34   am
    71    84    85    1
    72    78    79    1
    73    10    11    2
    74    10     9    1
    75     8     9    1
    76    85    86   ar
    77    95    98    1
    78    95    96    1
    79     9    12    1
    80    34    35    1
    81    12    13    1
    82    96    99   am
    83    96    97    2
    84    35    36    1
    85    35    38    1
    86    99   100    1
    87    42    43    2
    88    42    41    1
    89    40    36   am
    90    40    41    1
    91    36    37    2
    92    44    41    1
    93    44    46    1
    94    44    45    1
    95    39    38    1
    96   100   101    1
    97   100   103    1
    98   101   102    2
    99   103   105    1
   100   103   104    1
