@<TRIPOS>MOLECULE
tmp/1lo0D00.pdb
 128 128 0 0 0
SMALL
GASTEIGER

@<TRIPOS>ATOM
      1  N         18.9030  117.3210   10.6250 N.3    33  GLY33      -0.1210
      2  CA        17.6940  116.5610   10.9010 C.3    33  GLY33       0.1956
      3  C         18.0260  115.0700   10.8350 C.2    33  GLY33       0.2612
      4  O         18.7220  114.6200    9.9270 O.2    33  GLY33      -0.2717
      5  N         17.5280  114.3090   11.8020 N.am   34  MET34      -0.1965
      6  CA        17.7880  112.8720   11.8770 C.3    34  MET34       0.1736
      7  C         16.5220  112.0530   11.6450 C.2    34  MET34       0.2617
      8  O         15.4270  112.4880   11.9840 O.2    34  MET34      -0.2715
      9  CB        18.3800  112.5240   13.2450 C.3    34  MET34       0.0427
     10  CG        19.6370  113.3040   13.6100 C.3    34  MET34       0.0599
     11  SD        21.0340  113.0120   12.4900 S.3    34  MET34      -0.1393
     12  CE        21.3320  111.1860   12.7480 C.3    34  MET34       0.0692
     13  N         16.6770  110.8650   11.0700 N.am   35  SER35      -0.1950
     14  CA        15.5380  110.0080   10.7860 C.3    35  SER35       0.1924
     15  C         15.8590  108.5330   10.9970 C.2    35  SER35       0.2314
     16  O         17.0220  108.1330   11.0810 O.2    35  SER35      -0.2863
     17  CB        15.0770  110.1800    9.3320 C.3    35  SER35       0.2116
     18  OG        14.5790  111.4740    9.0590 O.3    35  SER35      -0.2180
     19  N         11.2960  111.0000   12.0380 N.3    50  SER50      -0.1202
     20  CA        12.3640  111.9830   11.9280 C.3    50  SER50       0.2020
     21  C         12.1660  113.1360   12.9140 C.2    50  SER50       0.2619
     22  O         11.0470  113.4260   13.3430 O.2    50  SER50      -0.2717
     23  CB        12.4720  112.5150   10.4910 C.3    50  SER50       0.2103
     24  OG        11.2930  113.1730   10.0820 O.3    50  SER50      -0.2182
     25  N         13.2770  113.7680   13.2850 N.am   51  ILE51      -0.1965
     26  CA        13.3010  114.8900   14.2200 C.3    51  ILE51       0.1727
     27  C         14.2260  115.9510   13.5970 C.2    51  ILE51       0.2617
     28  O         15.3730  115.6520   13.2320 O.2    51  ILE51      -0.2715
     29  CB        13.8130  114.4100   15.6430 C.3    51  ILE51       0.0290
     30  CG1       14.0370  115.5980   16.5830 C.3    51  ILE51       0.0022
     31  CG2       15.0970  113.5960   15.5150 C.3    51  ILE51       0.0023
     32  CD1       14.1350  115.1840   18.0520 C.3    51  ILE51       0.0001
     33  N         13.7200  117.1770   13.4470 N.am   52  SER52      -0.1936
     34  CA        14.5090  118.2390   12.8280 C.3    52  SER52       0.2055
     35  C         15.5940  118.8150   13.7190 C.2    52  SER52       0.2643
     36  O         15.5940  118.6130   14.9320 O.2    52  SER52      -0.2714
     37  CB        13.6010  119.3710   12.3160 C.3    52  SER52       0.2130
     38  OG        12.9690  120.0790   13.3650 O.3    52  SER52      -0.2179
     39  N         16.5340  119.5140   13.0920 N.am   53  TYR53      -0.1973
     40  CA        17.6420  120.1510   13.7920 C.3    53  TYR53       0.1639
     41  C         17.0470  121.0230   14.9000 C.2    53  TYR53       0.2290
     42  O         17.7260  121.3790   15.8630 O.2    53  TYR53      -0.2864
     43  CB        18.4320  121.0360   12.8160 C.3    53  TYR53       0.0560
     44  CG        17.7390  122.3570   12.5390 C.ar   53  TYR53      -0.0198
     45  CD1       18.0000  123.4790   13.3320 C.ar   53  TYR53      -0.0009
     46  CD2       16.7360  122.4550   11.5680 C.ar   53  TYR53      -0.0009
     47  CE1       17.2710  124.6680   13.1740 C.ar   53  TYR53       0.0417
     48  CE2       16.0000  123.6320   11.4020 C.ar   53  TYR53       0.0417
     49  CZ        16.2700  124.7360   12.2080 C.ar   53  TYR53       0.1957
     50  OH        15.5400  125.8990   12.0580 O.3    53  TYR53      -0.2866
     51  N         11.5370  119.4340   15.8290 N.3    56  LEU56      -0.1245
     52  CA        10.2110  119.0940   15.3270 C.3    56  LEU56       0.1561
     53  C         10.1790  117.6190   14.9330 C.2    56  LEU56       0.2260
     54  O         11.0420  117.1450   14.1830 O.2    56  LEU56      -0.2867
     55  CB         9.8400  119.9810   14.1360 C.3    56  LEU56       0.0270
     56  CG         9.3370  121.3860   14.5070 C.3    56  LEU56       0.0019
     57  CD1       10.4730  122.1920   15.1170 C.3    56  LEU56       0.0001
     58  CD2        8.7690  122.0930   13.2770 C.3    56  LEU56       0.0001
     59  N          8.2520  114.0760   13.3480 N.3    58  TYR58      -0.1241
     60  CA         7.3280  113.5710   12.3380 C.3    58  TYR58       0.1605
     61  C          7.2850  112.0450   12.2960 C.2    58  TYR58       0.2264
     62  O          8.3200  111.3730   12.3760 O.2    58  TYR58      -0.2867
     63  CB         7.7190  114.0950   10.9490 C.3    58  TYR58       0.0534
     64  CG         7.9260  115.5950   10.8960 C.ar   58  TYR58      -0.0201
     65  CD1        9.1110  116.1740   11.3360 C.ar   58  TYR58      -0.0009
     66  CD2        6.9050  116.4340   10.4700 C.ar   58  TYR58      -0.0009
     67  CE1        9.2710  117.5580   11.3570 C.ar   58  TYR58       0.0417
     68  CE2        7.0510  117.8150   10.4950 C.ar   58  TYR58       0.0417
     69  CZ         8.2290  118.3710   10.9380 C.ar   58  TYR58       0.1957
     70  OH         8.3370  119.7420   10.9700 O.3    58  TYR58      -0.2866
     71  N         20.1680  113.8990    7.5010 N.3    98  GLY98      -0.1210
     72  CA        19.7940  114.5600    6.2700 C.3    98  GLY98       0.1956
     73  C         20.1230  116.0310    6.3390 C.2    98  GLY98       0.2612
     74  O         20.5500  116.5400    7.3840 O.2    98  GLY98      -0.2717
     75  N         19.9300  116.7150    5.2180 N.am   99  ASP99      -0.1959
     76  CA        20.2010  118.1460    5.1300 C.3    99  ASP99       0.1840
     77  C         18.8720  118.9010    5.0220 C.2    99  ASP99       0.2623
     78  O         18.1490  118.7470    4.0410 O.2    99  ASP99      -0.2715
     79  CB        21.0990  118.4270    3.9130 C.3    99  ASP99       0.1450
     80  CG        22.4630  117.7630    4.0300 C.2    99  ASP99       0.3671
     81  OD1       22.5240  116.5180    3.9700 O.co2  99  ASP99      -0.2456
     82  OD2       23.4690  118.4890    4.1910 O.co2  99  ASP99      -0.2456
     83  N         18.5640  119.7140    6.0320 N.am  100  SER100     -0.1936
     84  CA        17.3020  120.4690    6.0930 C.3   100  SER100      0.2055
     85  C         16.8590  121.0690    4.7620 C.2   100  SER100      0.2643
     86  O         17.5530  121.8980    4.1630 O.2   100  SER100     -0.2714
     87  CB        17.3860  121.5780    7.1480 C.3   100  SER100      0.2130
     88  OG        17.6090  121.0600    8.4470 O.3   100  SER100     -0.2179
     89  N         15.6840  120.6480    4.3110 N.am  101  PHE101     -0.1959
     90  CA        15.1140  121.0980    3.0400 C.3   101  PHE101      0.1771
     91  C         16.0510  120.9890    1.8630 C.2   101  PHE101      0.2619
     92  O         16.0380  121.8240    0.9600 O.2   101  PHE101     -0.2715
     93  CB        14.5810  122.5220    3.1540 C.3   101  PHE101      0.0574
     94  CG        13.2920  122.5940    3.8900 C.ar  101  PHE101     -0.0200
     95  CD1       13.2550  122.9860    5.2170 C.ar  101  PHE101     -0.0042
     96  CD2       12.1190  122.1700    3.2830 C.ar  101  PHE101     -0.0042
     97  CE1       12.0710  122.9460    5.9260 C.ar  101  PHE101     -0.0003
     98  CE2       10.9330  122.1270    3.9900 C.ar  101  PHE101     -0.0003
     99  CZ        10.9100  122.5160    5.3190 C.ar  101  PHE101     -0.0000
    100  N         16.8450  119.9280    1.8730 N.am  102  LEU102     -0.1963
    101  CA        17.7990  119.6820    0.8150 C.3   102  LEU102      0.1728
    102  C         17.6900  118.1980    0.4550 C.2   102  LEU102      0.2616
    103  O         17.3110  117.8380   -0.6670 O.2   102  LEU102     -0.2715
    104  CB        19.2030  120.0290    1.3250 C.3   102  LEU102      0.0311
    105  CG        20.1710  120.8420    0.4700 C.3   102  LEU102      0.0022
    106  CD1       19.4630  121.9420   -0.3030 C.3   102  LEU102      0.0001
    107  CD2       21.2120  121.4210    1.4000 C.3   102  LEU102      0.0001
    108  N         18.0090  117.3510    1.4300 N.am  103  VAL103     -0.1963
    109  CA        17.9750  115.9050    1.2520 C.3   103  VAL103      0.1727
    110  C         17.5240  115.2420    2.5520 C.2   103  VAL103      0.2616
    111  O         18.0600  115.5180    3.6260 O.2   103  VAL103     -0.2715
    112  CB        19.3870  115.3480    0.8600 C.3   103  VAL103      0.0290
    113  CG1       19.2920  113.8870    0.4250 C.3   103  VAL103      0.0023
    114  CG2       19.9770  116.1870   -0.2400 C.3   103  VAL103      0.0023
    115  N         16.5330  114.3670    2.4540 N.am  104  TRP104     -0.1974
    116  CA        16.0400  113.6550    3.6250 C.3   104  TRP104      0.1640
    117  C         17.0400  112.6900    4.2380 C.2   104  TRP104      0.2290
    118  O         17.4050  112.8360    5.3990 O.2   104  TRP104     -0.2864
    119  CB        14.7560  112.8940    3.2880 C.3   104  TRP104      0.0576
    120  CG        13.5680  113.7640    3.3650 C.ar  104  TRP104      0.0006
    121  CD1       12.9630  114.4250    2.3370 C.ar  104  TRP104      0.0946
    122  CD2       12.8810  114.1550    4.5560 C.ar  104  TRP104      0.0152
    123  NE1       11.9430  115.2060    2.8130 N.ar  104  TRP104     -0.2442
    124  CE2       11.8690  115.0590    4.1750 C.ar  104  TRP104      0.0810
    125  CE3       13.0240  113.8300    5.9100 C.ar  104  TRP104      0.0012
    126  CZ2       10.9980  115.6450    5.1060 C.ar  104  TRP104      0.0191
    127  CZ3       12.1670  114.4020    6.8250 C.ar  104  TRP104      0.0001
    128  CH2       11.1640  115.3030    6.4220 C.ar  104  TRP104      0.0015
@<TRIPOS>BOND
     1   103   102    2
     2   106   105    1
     3   114   112    1
     4   113   112    1
     5   102   101    1
     6   102   108   am
     7   105   104    1
     8   105   107    1
     9   101   104    1
    10   101   100    1
    11   112   109    1
    12    92    91    2
    13   109   108    1
    14   109   110    1
    15    91   100   am
    16    91    90    1
    17   121   123   ar
    18   121   120   ar
    19   115   110   am
    20   115   116    1
    21   110   111    2
    22   123   124   ar
    23    90    93    1
    24    90    89    1
    25    93    94    1
    26    96    94   ar
    27    96    98   ar
    28   119   120    1
    29   119   116    1
    30   120   122   ar
    31   116   117    1
    32    94    95   ar
    33    79    80    1
    34    79    76    1
    35    81    80   ar
    36    98    99   ar
    37    80    82   ar
    38    78    77    2
    39    86    85    2
    40   124   122   ar
    41   124   126   ar
    42   117   118    2
    43    89    85   am
    44   122   125   ar
    45    85    84    1
    46    77    76    1
    47    77    83   am
    48   126   128   ar
    49    76    75    1
    50    95    97   ar
    51    75    73   am
    52    99    97   ar
    53   125   127   ar
    54    83    84    1
    55    84    87    1
    56    72    73    1
    57    72    71    1
    58    73    74    2
    59   128   127   ar
    60    87    88    1
    61    18    17    1
    62    17    14    1
    63     4     3    2
    64    24    23    1
    65    66    68   ar
    66    66    64   ar
    67    23    20    1
    68    68    69   ar
    69     1     2    1
    70    14    15    1
    71    14    13    1
    72     3     2    1
    73     3     5   am
    74    64    63    1
    75    64    65   ar
    76    69    70    1
    77    69    67   ar
    78    63    60    1
    79    15    16    2
    80    13     7   am
    81    65    67   ar
    82    48    46   ar
    83    48    49   ar
    84    46    44   ar
    85     7     6    1
    86     7     8    2
    87     5     6    1
    88     6     9    1
    89    20    19    1
    90    20    21    1
    91    50    49    1
    92    49    47   ar
    93    61    60    1
    94    61    62    2
    95    37    34    1
    96    37    38    1
    97    60    59    1
    98    11    12    1
    99    11    10    1
   100    44    43    1
   101    44    45   ar
   102    43    40    1
   103    34    33    1
   104    34    35    1
   105    21    25   am
   106    21    22    2
   107    39    35   am
   108    39    40    1
   109    47    45   ar
   110    28    27    2
   111     9    10    1
   112    58    56    1
   113    25    26    1
   114    33    27   am
   115    27    26    1
   116    35    36    2
   117    40    41    1
   118    55    56    1
   119    55    52    1
   120    54    53    2
   121    26    29    1
   122    56    57    1
   123    41    42    2
   124    53    52    1
   125    52    51    1
   126    31    29    1
   127    29    30    1
   128    30    32    1
