@<TRIPOS>MOLECULE
tmp/1lo3B00.pdb
 108 108 0 0 0
SMALL
GASTEIGER

@<TRIPOS>ATOM
      1  N          1.1330   93.3850  -32.1630 N.3    33  GLY33      -0.1210
      2  CA         2.4280   94.0090  -31.9910 C.3    33  GLY33       0.1956
      3  C          2.1810   95.5070  -31.8960 C.2    33  GLY33       0.2612
      4  O          1.3710   96.0560  -32.6360 O.2    33  GLY33      -0.2717
      5  N          2.8780   96.1730  -30.9870 N.am   34  MET34      -0.1965
      6  CA         2.6930   97.6000  -30.7680 C.3    34  MET34       0.1736
      7  C          3.9610   98.3700  -31.0680 C.2    34  MET34       0.2617
      8  O          5.0560   97.8800  -30.8380 O.2    34  MET34      -0.2715
      9  CB         2.2880   97.8250  -29.3180 C.3    34  MET34       0.0427
     10  CG         0.9480   98.4920  -29.1330 C.3    34  MET34       0.0599
     11  SD        -0.4230   97.6640  -29.9060 S.3    34  MET34      -0.1393
     12  CE        -1.4220   99.0610  -30.2250 C.3    34  MET34       0.0692
     13  N          3.8070   99.5870  -31.5690 N.am   35  SER35      -0.1950
     14  CA         4.9470  100.4060  -31.9180 C.3    35  SER35       0.1924
     15  C          4.6540  101.8780  -31.6720 C.2    35  SER35       0.2314
     16  O          3.5090  102.2750  -31.4920 O.2    35  SER35      -0.2863
     17  CB         5.2920  100.2270  -33.4060 C.3    35  SER35       0.2116
     18  OG         5.4530   98.8690  -33.7710 O.3    35  SER35      -0.2180
     19  N          9.0690   99.2050  -30.6780 N.3    50  SER50      -0.1202
     20  CA         7.9420   98.2940  -30.8070 C.3    50  SER50       0.2020
     21  C          8.0910   97.0920  -29.8820 C.2    50  SER50       0.2619
     22  O          9.1910   96.6690  -29.5600 O.2    50  SER50      -0.2717
     23  CB         7.7520   97.8520  -32.2740 C.3    50  SER50       0.2103
     24  OG         8.9760   97.5900  -32.9240 O.3    50  SER50      -0.2182
     25  N          6.9640   96.5680  -29.4240 N.am   51  ILE51      -0.1965
     26  CA         6.9590   95.4260  -28.5270 C.3    51  ILE51       0.1727
     27  C          5.9900   94.4000  -29.1180 C.2    51  ILE51       0.2616
     28  O          4.8470   94.7360  -29.4460 O.2    51  ILE51      -0.2715
     29  CB         6.5510   95.8760  -27.0750 C.3    51  ILE51       0.0290
     30  CG1        6.5480   94.6880  -26.1180 C.3    51  ILE51       0.0022
     31  CG2        5.2070   96.5700  -27.0930 C.3    51  ILE51       0.0023
     32  CD1        6.5550   95.0980  -24.6540 C.3    51  ILE51       0.0001
     33  N          6.4630   93.1630  -29.2900 N.am   52  SER52      -0.1950
     34  CA         5.6500   92.0940  -29.8580 C.3    52  SER52       0.1924
     35  C          4.5790   91.6340  -28.9090 C.2    52  SER52       0.2314
     36  O          4.6280   91.9250  -27.7150 O.2    52  SER52      -0.2863
     37  CB         6.5160   90.8880  -30.2570 C.3    52  SER52       0.2116
     38  OG         6.8980   90.1000  -29.1420 O.3    52  SER52      -0.2180
     39  N         12.0750   96.0850  -29.5260 N.3    58  TYR58      -0.1241
     40  CA        13.0010   96.5030  -30.5690 C.3    58  TYR58       0.1605
     41  C         13.1350   98.0200  -30.5600 C.2    58  TYR58       0.2264
     42  O         12.1430   98.7330  -30.4400 O.2    58  TYR58      -0.2867
     43  CB        12.5160   96.0450  -31.9660 C.3    58  TYR58       0.0534
     44  CG        12.2280   94.5570  -32.1050 C.ar   58  TYR58      -0.0201
     45  CD1       10.9720   94.0330  -31.7890 C.ar   58  TYR58      -0.0009
     46  CD2       13.2240   93.6720  -32.4980 C.ar   58  TYR58      -0.0009
     47  CE1       10.7160   92.6600  -31.8530 C.ar   58  TYR58       0.0417
     48  CE2       12.9840   92.2900  -32.5670 C.ar   58  TYR58       0.0417
     49  CZ        11.7250   91.7890  -32.2410 C.ar   58  TYR58       0.1957
     50  OH        11.4870   90.4230  -32.2990 O.3    58  TYR58      -0.2866
     51  N         -0.0520   96.8410  -34.9720 N.3    98  GLY98      -0.1210
     52  CA         0.2670   96.2260  -36.2370 C.3    98  GLY98       0.1956
     53  C         -0.0860   94.7680  -36.1620 C.2    98  GLY98       0.2612
     54  O         -0.4240   94.2430  -35.0900 O.2    98  GLY98      -0.2717
     55  N         -0.0200   94.1150  -37.3160 N.am   99  ASP99      -0.1959
     56  CA        -0.3070   92.6870  -37.4110 C.3    99  ASP99       0.1840
     57  C          1.0070   91.9060  -37.5720 C.2    99  ASP99       0.2623
     58  O          1.6590   91.9480  -38.6220 O.2    99  ASP99      -0.2715
     59  CB        -1.2710   92.4080  -38.5790 C.3    99  ASP99       0.1450
     60  CG        -2.7170   92.7870  -38.2530 C.2    99  ASP99       0.3671
     61  OD1       -3.0070   93.9890  -38.0660 O.co2  99  ASP99      -0.2456
     62  OD2       -3.5660   91.8740  -38.1760 O.co2  99  ASP99      -0.2456
     63  N          1.3860   91.2120  -36.5010 N.am  100  SER100     -0.1936
     64  CA         2.6060   90.4220  -36.4630 C.3   100  SER100      0.2055
     65  C          2.8680   89.6230  -37.7380 C.2   100  SER100      0.2643
     66  O          2.0700   88.7770  -38.1480 O.2   100  SER100     -0.2714
     67  CB         2.5770   89.4910  -35.2490 C.3   100  SER100      0.2130
     68  OG         2.4780   90.2470  -34.0520 O.3   100  SER100     -0.2179
     69  N          4.0190   89.9100  -38.3420 N.am  101  PHE101     -0.1959
     70  CA         4.4800   89.2830  -39.5790 C.3   101  PHE101      0.1771
     71  C          3.5420   89.4960  -40.7610 C.2   101  PHE101      0.2619
     72  O          3.5940   88.7710  -41.7560 O.2   101  PHE101     -0.2715
     73  CB         4.7810   87.8020  -39.3340 C.3   101  PHE101      0.0574
     74  CG         5.8700   87.5850  -38.3210 C.ar  101  PHE101     -0.0200
     75  CD1        5.5700   87.4950  -36.9630 C.ar  101  PHE101     -0.0042
     76  CD2        7.2080   87.5700  -38.7160 C.ar  101  PHE101     -0.0042
     77  CE1        6.5690   87.3990  -36.0210 C.ar  101  PHE101     -0.0003
     78  CE2        8.2140   87.4750  -37.7770 C.ar  101  PHE101     -0.0003
     79  CZ         7.8930   87.3900  -36.4200 C.ar  101  PHE101     -0.0000
     80  N          2.7180   90.5390  -40.6560 N.am  102  LEU102     -0.1963
     81  CA         1.7700   90.8740  -41.7070 C.3   102  LEU102      0.1728
     82  C          1.8650   92.3510  -42.1530 C.2   102  LEU102      0.2616
     83  O          2.0570   92.6420  -43.3400 O.2   102  LEU102     -0.2715
     84  CB         0.3660   90.5330  -41.2110 C.3   102  LEU102      0.0311
     85  CG        -0.7000   90.0970  -42.2080 C.3   102  LEU102      0.0022
     86  CD1       -0.1690   89.0210  -43.1550 C.3   102  LEU102      0.0001
     87  CD2       -1.8730   89.5810  -41.4160 C.3   102  LEU102      0.0001
     88  N          1.7280   93.2760  -41.2010 N.am  103  VAL103     -0.1963
     89  CA         1.7910   94.7170  -41.4850 C.3   103  VAL103      0.1727
     90  C          2.2420   95.4190  -40.2100 C.2   103  VAL103      0.2616
     91  O          1.6720   95.2090  -39.1510 O.2   103  VAL103     -0.2715
     92  CB         0.4000   95.3100  -41.8600 C.3   103  VAL103      0.0290
     93  CG1        0.5740   96.6530  -42.5600 C.3   103  VAL103      0.0023
     94  CG2       -0.3860   94.3350  -42.7090 C.3   103  VAL103      0.0023
     95  N          3.2440   96.2740  -40.3220 N.am  104  TRP104     -0.1974
     96  CA         3.7710   96.9780  -39.1640 C.3   104  TRP104      0.1640
     97  C          2.8790   98.0240  -38.5240 C.2   104  TRP104      0.2290
     98  O          2.6770   98.0180  -37.3140 O.2   104  TRP104     -0.2864
     99  CB         5.1180   97.6390  -39.5070 C.3   104  TRP104      0.0576
    100  CG         6.2780   96.7090  -39.4160 C.ar  104  TRP104      0.0006
    101  CD1        6.8240   95.9800  -40.4250 C.ar  104  TRP104      0.0946
    102  CD2        7.0100   96.3740  -38.2330 C.ar  104  TRP104      0.0152
    103  NE1        7.8540   95.2110  -39.9500 N.ar  104  TRP104     -0.2442
    104  CE2        7.9910   95.4340  -38.6040 C.ar  104  TRP104      0.0810
    105  CE3        6.9310   96.7770  -36.8960 C.ar  104  TRP104      0.0012
    106  CZ2        8.8910   94.8890  -37.6840 C.ar  104  TRP104      0.0191
    107  CZ3        7.8190   96.2370  -35.9860 C.ar  104  TRP104      0.0001
    108  CH2        8.7880   95.3020  -36.3840 C.ar  104  TRP104      0.0015
@<TRIPOS>BOND
     1    83    82    2
     2    86    85    1
     3    94    92    1
     4    93    92    1
     5    85    87    1
     6    85    84    1
     7    82    81    1
     8    82    88   am
     9    92    89    1
    10    72    71    2
    11    81    84    1
    12    81    80    1
    13    89    88    1
    14    89    90    1
    15    71    80   am
    16    71    70    1
    17   101   103   ar
    18   101   100   ar
    19    95    90   am
    20    95    96    1
    21    90    91    2
    22   103   104   ar
    23    70    73    1
    24    70    69    1
    25    99   100    1
    26    99    96    1
    27   100   102   ar
    28    73    74    1
    29    96    97    1
    30    76    74   ar
    31    76    78   ar
    32    58    57    2
    33   104   102   ar
    34   104   106   ar
    35    59    60    1
    36    59    56    1
    37    97    98    2
    38    69    65   am
    39    74    75   ar
    40    60    62   ar
    41    60    61   ar
    42   102   105   ar
    43    66    65    2
    44    78    79   ar
    45    65    64    1
    46   106   108   ar
    47    57    56    1
    48    57    63   am
    49    56    55    1
    50    55    53   am
    51    75    77   ar
    52   105   107   ar
    53    63    64    1
    54    64    67    1
    55    79    77   ar
    56   108   107   ar
    57    52    53    1
    58    52    51    1
    59    53    54    2
    60    67    68    1
    61    18    17    1
    62    17    14    1
    63    24    23    1
    64     4     3    2
    65    48    46   ar
    66    48    49   ar
    67    46    44   ar
    68    50    49    1
    69    23    20    1
    70    49    47   ar
    71     1     2    1
    72    44    43    1
    73    44    45   ar
    74     2     3    1
    75    43    40    1
    76    14    15    1
    77    14    13    1
    78     3     5   am
    79    47    45   ar
    80    15    16    2
    81    13     7   am
    82     7     8    2
    83     7     6    1
    84     5     6    1
    85    20    19    1
    86    20    21    1
    87     6     9    1
    88    40    41    1
    89    40    39    1
    90    41    42    2
    91    37    34    1
    92    37    38    1
    93    12    11    1
    94    11    10    1
    95    21    22    2
    96    21    25   am
    97    34    33    1
    98    34    35    1
    99    28    27    2
   100    25    26    1
   101     9    10    1
   102    33    27   am
   103    27    26    1
   104    35    36    2
   105    26    29    1
   106    31    29    1
   107    29    30    1
   108    30    32    1
