@<TRIPOS>MOLECULE
tmp/1lo6A00.pdb
 102 100 0 0 0
SMALL
GASTEIGER

@<TRIPOS>ATOM
      1  N         35.6880   87.7080   63.3980 N.3    41  HIS41      -0.1241
      2  CA        37.1330   87.5540   63.2660 C.3    41  HIS41       0.1621
      3  C         37.5690   86.1000   63.0590 C.2    41  HIS41       0.2264
      4  O         38.7570   85.8140   62.8950 O.2    41  HIS41      -0.2867
      5  CB        37.8910   88.2160   64.4440 C.3    41  HIS41       0.0745
      6  CG        37.7780   87.5050   65.7610 C.ar   41  HIS41       0.0817
      7  ND1       36.8590   87.8640   66.7260 N.ar   41  HIS41      -0.2268
      8  CD2       38.5430   86.5340   66.3170 C.ar   41  HIS41       0.1154
      9  CE1       37.0670   87.1530   67.8190 C.ar   41  HIS41       0.1986
     10  NE2       38.0840   86.3390   67.6000 N.ar   41  HIS41      -0.2212
     11  N         37.7410   83.2230   82.5880 N.3   170  ASP170     -0.1225
     12  CA        37.5980   84.0800   81.4160 C.3   170  ASP170      0.1805
     13  C         37.8080   83.2810   80.1300 C.2   170  ASP170      0.2598
     14  O         38.3890   82.1940   80.1470 O.2   170  ASP170     -0.2718
     15  CB        38.6750   85.1720   81.5480 C.3   170  ASP170      0.1424
     16  CG        38.5420   86.3090   80.5280 C.2   170  ASP170      0.3668
     17  OD1       37.4560   86.4920   79.9470 O.co2 170  ASP170     -0.2456
     18  OD2       39.5400   87.0500   80.3420 O.co2 170  ASP170     -0.2456
     19  N         37.3040   83.8030   79.0180 N.am  171  SER171     -0.1938
     20  CA        37.4950   83.1310   77.7370 C.3   171  SER171      0.2055
     21  C         38.8870   83.5100   77.2460 C.2   171  SER171      0.2643
     22  O         39.5160   84.4100   77.7990 O.2   171  SER171     -0.2714
     23  CB        36.4030   83.5380   76.7320 C.3   171  SER171      0.2130
     24  OG        36.1150   84.9220   76.7810 O.3   171  SER171     -0.2179
     25  N         39.3760   82.8310   76.2170 N.am  172  CYS172     -0.1953
     26  CA        40.7180   83.0940   75.7320 C.3   172  CYS172      0.1843
     27  C         40.8640   82.7750   74.2570 C.2   172  CYS172      0.2625
     28  O         39.8850   82.4430   73.5930 O.2   172  CYS172     -0.2714
     29  CB        41.7080   82.2740   76.5570 C.3   172  CYS172      0.0997
     30  SG        43.3880   82.9740   76.6550 S.3   172  CYS172     -0.0797
     31  N         42.0920   82.9020   73.7640 N.am  173  GLN173     -0.1977
     32  CA        42.4110   82.6380   72.3660 C.3   173  GLN173      0.1601
     33  C         41.9010   81.2550   72.0140 C.2   173  GLN173      0.2287
     34  O         42.1960   80.2900   72.7180 O.2   173  GLN173     -0.2864
     35  CB        43.9250   82.6850   72.1690 C.3   173  GLN173      0.0394
     36  CG        44.3830   82.5870   70.7210 C.3   173  GLN173      0.0908
     37  CD        45.8830   82.3790   70.6080 C.2   173  GLN173      0.2608
     38  OE1       46.6650   83.0320   71.2970 O.2   173  GLN173     -0.2717
     39  NE2       46.2910   81.4710   69.7300 N.am  173  GLN173     -0.0878
     40  N         37.1120   82.2140   70.8570 N.3   176  SER176     -0.1217
     41  CA        36.4430   83.1730   69.9800 C.3   176  SER176      0.1889
     42  C         35.2500   82.5970   69.2330 C.2   176  SER176      0.2288
     43  O         35.3370   81.5100   68.6570 O.2   176  SER176     -0.2866
     44  CB        37.4210   83.7000   68.9230 C.3   176  SER176      0.2089
     45  OG        38.4290   84.5010   69.5030 O.3   176  SER176     -0.2183
     46  N         32.0510   85.0230   72.3270 N.3   190  VAL190     -0.1231
     47  CA        33.3950   85.3870   72.7550 C.3   190  VAL190      0.1692
     48  C         34.0020   86.2920   71.6740 C.2   190  VAL190      0.2593
     49  O         34.0900   85.8960   70.5090 O.2   190  VAL190     -0.2718
     50  CB        34.2740   84.1320   72.9400 C.3   190  VAL190      0.0266
     51  CG1       35.6850   84.5400   73.2690 C.3   190  VAL190      0.0020
     52  CG2       33.6860   83.2190   74.0190 C.3   190  VAL190      0.0020
     53  N         34.4190   87.5030   72.0530 N.am  191  SER191     -0.1938
     54  CA        34.9720   88.4500   71.0740 C.3   191  SER191      0.2055
     55  C         36.3950   88.8890   71.3820 C.2   191  SER191      0.2643
     56  O         37.3180   88.6110   70.6200 O.2   191  SER191     -0.2714
     57  CB        34.0550   89.6880   70.9540 C.3   191  SER191      0.2130
     58  OG        34.5410   90.6050   69.9660 O.3   191  SER191     -0.2179
     59  N         36.5770   89.5600   72.5160 N.am  192  TRP192     -0.1959
     60  CA        37.9000   90.0170   72.8980 C.3   192  TRP192      0.1771
     61  C         37.9770   90.2280   74.4040 C.2   192  TRP192      0.2620
     62  O         37.0120   89.9680   75.1280 O.2   192  TRP192     -0.2715
     63  CB        38.2770   91.3060   72.1310 C.3   192  TRP192      0.0590
     64  CG        37.3800   92.5130   72.3550 C.ar  192  TRP192      0.0006
     65  CD1       36.1520   92.7440   71.7940 C.ar  192  TRP192      0.0946
     66  CD2       37.6810   93.6680   73.1550 C.ar  192  TRP192      0.0152
     67  NE1       35.6720   93.9750   72.1940 N.ar  192  TRP192     -0.2442
     68  CE2       36.5910   94.5620   73.0280 C.ar  192  TRP192      0.0810
     69  CE3       38.7680   94.0340   73.9650 C.ar  192  TRP192      0.0012
     70  CZ2       36.5550   95.8000   73.6830 C.ar  192  TRP192      0.0191
     71  CZ3       38.7270   95.2690   74.6180 C.ar  192  TRP192      0.0001
     72  CH2       37.6320   96.1330   74.4710 C.ar  192  TRP192      0.0015
     73  N         39.1400   90.6530   74.8760 N.am  193  GLY193     -0.1940
     74  CA        39.3050   90.8840   76.2990 C.3   193  GLY193      0.2014
     75  C         40.7560   91.0260   76.6990 C.2   193  GLY193      0.2639
     76  O         41.6190   91.3110   75.8720 O.2   193  GLY193     -0.2714
     77  N         41.0180   90.8050   77.9790 N.am  194  ASN194     -0.1958
     78  CA        42.3550   90.9210   78.5250 C.3   194  ASN194      0.1819
     79  C         43.3300   89.8800   77.9570 C.2   194  ASN194      0.2621
     80  O         42.9690   88.7260   77.6940 O.2   194  ASN194     -0.2715
     81  CB        42.2780   90.7870   80.0490 C.3   194  ASN194      0.1195
     82  CG        43.4770   91.3950   80.7500 C.2   194  ASN194      0.2630
     83  OD1       43.7810   92.5710   80.5660 O.2   194  ASN194     -0.2716
     84  ND2       44.1560   90.5970   81.5630 N.am  194  ASN194     -0.0877
     85  N         44.5710   90.3090   77.7590 N.am  195  ILE195     -0.1977
     86  CA        45.6330   89.4370   77.2760 C.3   195  ILE195      0.1596
     87  C         46.8750   89.7840   78.0950 C.2   195  ILE195      0.2287
     88  O         47.3770   90.9030   78.0240 O.2   195  ILE195     -0.2864
     89  CB        45.9430   89.6610   75.7750 C.3   195  ILE195      0.0276
     90  CG1       44.8080   89.0940   74.9160 C.3   195  ILE195      0.0022
     91  CG2       47.2580   88.9810   75.4050 C.3   195  ILE195      0.0022
     92  CD1       45.0220   89.2730   73.4240 C.3   195  ILE195      0.0001
     93  N         44.8040   86.2820   79.2880 N.3   197  CYS197     -0.1235
     94  CA        43.4280   86.0650   79.6980 C.3   197  CYS197      0.1677
     95  C         43.2700   85.9950   81.2150 C.2   197  CYS197      0.2270
     96  O         44.1410   85.4800   81.9190 O.2   197  CYS197     -0.2867
     97  CB        42.9150   84.7980   79.0400 C.3   197  CYS197      0.0956
     98  SG        43.0840   84.9100   77.2220 S.3   197  CYS197     -0.0801
     99  N         35.8170   90.0480   80.3110 N.3   204  GLY204     -0.1225
    100  CA        35.8470   89.6210   78.9270 C.3   204  GLY204      0.1811
    101  C         34.7790   90.4160   78.1880 C.2   204  GLY204      0.2280
    102  O         33.7640   90.8010   78.7840 O.2   204  GLY204     -0.2866
@<TRIPOS>BOND
     1     4     3    2
     2     3     2    1
     3     2     1    1
     4     2     5    1
     5     5     6    1
     6     6     8   ar
     7     6     7   ar
     8     8    10   ar
     9     7     9   ar
    10    10     9   ar
    11    43    42    2
    12    44    45    1
    13    44    41    1
    14    42    41    1
    15    39    37   am
    16    58    57    1
    17    41    40    1
    18    49    48    2
    19    37    36    1
    20    37    38    2
    21    56    55    2
    22    36    35    1
    23    57    54    1
    24    54    55    1
    25    54    53    1
    26    55    59   am
    27    48    53   am
    28    48    47    1
    29    65    67   ar
    30    65    64   ar
    31    33    32    1
    32    33    34    2
    33    63    64    1
    34    63    60    1
    35    35    32    1
    36    67    68   ar
    37    46    47    1
    38    64    66   ar
    39    32    31    1
    40    59    60    1
    41    47    50    1
    42    60    61    1
    43    50    51    1
    44    50    52    1
    45    68    66   ar
    46    68    70   ar
    47    66    69   ar
    48    92    90    1
    49    28    27    2
    50    70    72   ar
    51    31    27   am
    52    69    71   ar
    53    27    26    1
    54    61    73   am
    55    61    62    2
    56    72    71   ar
    57    73    74    1
    58    90    89    1
    59    91    89    1
    60    26    25    1
    61    26    29    1
    62    89    86    1
    63    76    75    2
    64    25    21   am
    65    74    75    1
    66    29    30    1
    67    30    98    1
    68    75    77   am
    69    23    24    1
    70    23    20    1
    71    98    97    1
    72    21    20    1
    73    21    22    2
    74    86    85    1
    75    86    87    1
    76    80    79    2
    77    20    19    1
    78    85    79   am
    79    79    78    1
    80    77    78    1
    81    88    87    2
    82   101   102    2
    83   101   100    1
    84    78    81    1
    85   100    99    1
    86    19    13   am
    87    97    94    1
    88    93    94    1
    89    94    95    1
    90    17    16   ar
    91    81    82    1
    92    13    14    2
    93    13    12    1
    94    18    16   ar
    95    16    15    1
    96    83    82    2
    97    82    84   am
    98    95    96    2
    99    12    15    1
   100    12    11    1
