@<TRIPOS>MOLECULE
tmp/1lo7A00.pdb
 166 162 0 0 0
SMALL
GASTEIGER

@<TRIPOS>ATOM
      1  N         18.4380    4.2600    9.6230 N.3    31  ASP31      -0.1239
      2  CA        18.5790    5.6670    9.2290 C.3    31  ASP31       0.1674
      3  C         17.3560    6.1640    8.4550 C.2    31  ASP31       0.2266
      4  O         16.8930    7.3140    8.6340 O.2    31  ASP31      -0.2867
      5  CB        19.8810    5.9160    8.4550 C.3    31  ASP31       0.1410
      6  CG        20.1780    7.3870    8.4450 C.2    31  ASP31       0.3668
      7  OD1       20.2990    8.0080    9.4890 O.co2  31  ASP31      -0.2456
      8  OD2       20.2960    7.9320    7.2490 O.co2  31  ASP31      -0.2456
      9  N         14.5610    9.1580    9.8520 N.3    35  ARG35      -0.1245
     10  CA        14.1500   10.3320    9.1020 C.3    35  ARG35       0.1563
     11  C         12.6620   10.2690    8.8230 C.2    35  ARG35       0.2260
     12  O         11.9790   11.3010    8.8450 O.2    35  ARG35      -0.2867
     13  CB        14.9150   10.4340    7.7940 C.3    35  ARG35       0.0307
     14  CG        14.9250   11.8650    7.2530 C.3    35  ARG35       0.0489
     15  CD        15.7620   11.9730    5.9810 C.3    35  ARG35       0.2205
     16  NE        15.1800   11.1720    4.8710 N.pl3  35  ARG35      -0.0865
     17  CZ        14.1860   11.5880    4.0770 C.cat  35  ARG35       0.5346
     18  NH1       13.6270   12.7820    4.1800 N.pl3  35  ARG35       0.1354
     19  NH2       13.7410   10.7640    3.1340 N.pl3  35  ARG35       0.1354
     20  N         15.2360   17.9150    5.2860 N.3    46  TRP46      -0.1241
     21  CA        16.4410   18.6570    5.6140 C.3    46  TRP46       0.1605
     22  C         16.8210   19.6980    4.5320 C.2    46  TRP46       0.2264
     23  O         17.3730   20.7560    4.8260 O.2    46  TRP46      -0.2867
     24  CB        17.6230   17.7340    5.8950 C.3    46  TRP46       0.0550
     25  CG        17.3100   16.6230    6.8630 C.ar   46  TRP46       0.0003
     26  CD1       17.6810   15.3260    6.7020 C.ar   46  TRP46       0.0946
     27  CD2       16.5740   16.7020    8.0970 C.ar   46  TRP46       0.0152
     28  NE1       17.2460   14.5710    7.7470 N.ar   46  TRP46      -0.2442
     29  CE2       16.5820   15.3770    8.6470 C.ar   46  TRP46       0.0810
     30  CE3       15.9470   17.7580    8.8100 C.ar   46  TRP46       0.0012
     31  CZ2       15.9740   15.0730    9.8600 C.ar   46  TRP46       0.0191
     32  CZ3       15.3530   17.4370   10.0300 C.ar   46  TRP46       0.0001
     33  CH2       15.3770   16.1100   10.5340 C.ar   46  TRP46       0.0015
     34  N         20.9900   20.6760    9.1620 N.3    56  VAL56      -0.1231
     35  CA        21.3390   19.7610    8.0660 C.3    56  VAL56       0.1692
     36  C         20.7620   18.3620    8.2170 C.2    56  VAL56       0.2593
     37  O         20.7910   17.5340    7.2840 O.2    56  VAL56      -0.2718
     38  CB        22.8770   19.6750    7.9020 C.3    56  VAL56       0.0266
     39  CG1       23.4640   21.0390    7.6420 C.3    56  VAL56       0.0020
     40  CG2       23.5390   19.0480    9.1240 C.3    56  VAL56       0.0020
     41  N         20.2770   18.0840    9.4050 N.am   57  GLY57      -0.1942
     42  CA        19.7510   16.7710    9.6530 C.3    57  GLY57       0.2014
     43  C         20.0420   16.4010   11.1080 C.2    57  GLY57       0.2640
     44  O         20.2740   17.2910   11.9460 O.2    57  GLY57      -0.2714
     45  N         20.0080   15.0720   11.3950 N.am   58  THR58      -0.1937
     46  CA        20.2350   14.5560   12.7490 C.3    58  THR58       0.2017
     47  C         21.3220   13.4760   12.7730 C.2    58  THR58       0.2522
     48  O         21.0460   12.2800   12.8420 O.2    58  THR58      -0.2726
     49  CB        18.9250   13.9840   13.3430 C.3    58  THR58       0.1807
     50  OG1       18.4840   12.9270   12.5000 O.3    58  THR58      -0.2208
     51  CG2       17.8850   15.0760   13.3970 C.3    58  THR58       0.0379
     52  N         22.5720   13.8940   12.6840 N.am   59  PRO59      -0.2490
     53  CA        23.6690   12.9410   12.7040 C.3    59  PRO59       0.1619
     54  C         23.6720   12.1550   14.0150 C.2    59  PRO59       0.2605
     55  O         23.2210   12.6190   15.0790 O.2    59  PRO59      -0.2715
     56  CB        24.9700   13.7500   12.6280 C.3    59  PRO59       0.0570
     57  CG        24.5790   15.2040   12.7690 C.2    59  PRO59      -0.0077
     58  CD        23.0490   15.2930   12.6810 C.2    59  PRO59       0.0634
     59  N         24.2000   10.9200   13.9180 N.am   60  ILE60      -0.1964
     60  CA        24.2940    9.9950   15.0540 C.3    60  ILE60       0.1727
     61  C         25.5780   10.1620   15.8170 C.2    60  ILE60       0.2616
     62  O         26.6090   10.3600   15.1980 O.2    60  ILE60      -0.2715
     63  CB        24.1300    8.5620   14.5270 C.3    60  ILE60       0.0290
     64  CG1       23.9550    7.5110   15.6430 C.3    60  ILE60       0.0022
     65  CG2       25.2600    8.2040   13.5480 C.3    60  ILE60       0.0023
     66  CD1       23.2520    6.2250   15.1700 C.3    60  ILE60       0.0001
     67  N         25.4630   10.1120   17.1580 N.am   61  VAL61      -0.1963
     68  CA        26.6120   10.2340   18.0580 C.3    61  VAL61       0.1727
     69  C         26.8850    8.9290   18.8100 C.2    61  VAL61       0.2616
     70  O         28.0010    8.6580   19.2650 O.2    61  VAL61      -0.2715
     71  CB        26.5880   11.4160   19.0150 C.3    61  VAL61       0.0290
     72  CG1       26.5390   12.7020   18.1790 C.3    61  VAL61       0.0023
     73  CG2       25.3410   11.4260   19.9030 C.3    61  VAL61       0.0023
     74  N         25.8660    8.0980   18.9410 N.am   62  SER62      -0.1950
     75  CA        26.0790    6.8550   19.6460 C.3    62  SER62       0.1924
     76  C         25.0350    5.8210   19.2880 C.2    62  SER62       0.2314
     77  O         23.9290    6.1590   18.8960 O.2    62  SER62      -0.2863
     78  CB        26.0330    7.1380   21.1380 C.3    62  SER62       0.2116
     79  OG        26.2710    5.9360   21.8410 O.3    62  SER62      -0.2180
     80  N         16.8920   15.0720   25.6700 N.3    87  ARG87      -0.1231
     81  CA        17.9050   15.5010   26.5620 C.3    87  ARG87       0.1694
     82  C         18.0740   16.9660   26.3710 C.2    87  ARG87       0.2592
     83  O         17.0810   17.6600   26.5000 O.2    87  ARG87      -0.2718
     84  CB        19.1730   14.6530   26.4420 C.3    87  ARG87       0.0321
     85  CG        18.8780   13.2200   26.8850 C.3    87  ARG87       0.0489
     86  CD        20.0270   12.2420   26.6320 C.3    87  ARG87       0.2205
     87  NE        19.7370   10.9140   27.1980 N.pl3  87  ARG87      -0.0865
     88  CZ        20.5880    9.8920   27.1730 C.cat  87  ARG87       0.5346
     89  NH1       21.7900    9.9970   26.6330 N.pl3  87  ARG87       0.1354
     90  NH2       20.2030    8.7320   27.7320 N.pl3  87  ARG87       0.1354
     91  N         19.2740   17.4490   26.1050 N.am   88  ARG88      -0.1966
     92  CA        19.4000   18.8860   25.9090 C.3    88  ARG88       0.1729
     93  C         19.6460   19.0590   24.4290 C.2    88  ARG88       0.2616
     94  O         18.7570   19.4790   23.6840 O.2    88  ARG88      -0.2715
     95  CB        20.5080   19.5220   26.7540 C.3    88  ARG88       0.0348
     96  CG        20.6430   21.0230   26.4780 C.3    88  ARG88       0.0492
     97  CD        21.4910   21.7330   27.5270 C.3    88  ARG88       0.2205
     98  NE        21.1110   23.1340   27.7050 N.pl3  88  ARG88      -0.0865
     99  CZ        21.5580   24.1210   26.9190 C.cat  88  ARG88       0.5346
    100  NH1       22.3970   23.8880   25.9140 N.pl3  88  ARG88       0.1354
    101  NH2       21.1660   25.3790   27.1300 N.pl3  88  ARG88       0.1354
    102  N         20.8510   18.7020   23.9910 N.am   89  LYS89      -0.1963
    103  CA        21.1590   18.7970   22.5720 C.3    89  LYS89       0.1728
    104  C         20.9480   17.4450   21.8950 C.2    89  LYS89       0.2616
    105  O         20.9170   17.3300   20.6670 O.2    89  LYS89      -0.2715
    106  CB        22.5990   19.1780   22.3590 C.3    89  LYS89       0.0311
    107  CG        22.8940   20.5710   22.7830 C.3    89  LYS89       0.0038
    108  CD        24.2190   21.0460   22.2100 C.3    89  LYS89       0.0206
    109  CE        24.5280   22.4590   22.6480 C.3    89  LYS89       0.1093
    110  NZ        25.9440   22.7340   22.4950 N.3    89  LYS89      -0.1314
    111  N         20.7840   16.3920   22.6760 N.am   90  SER90      -0.1950
    112  CA        20.6140   15.0720   22.0770 C.3    90  SER90       0.1924
    113  C         19.2840   14.4510   22.3670 C.2    90  SER90       0.2314
    114  O         18.5490   14.9250   23.2170 O.2    90  SER90      -0.2863
    115  CB        21.6950   14.1170   22.6070 C.3    90  SER90       0.2116
    116  OG        21.6040   13.9440   24.0380 O.3    90  SER90      -0.2180
    117  N         21.4950    7.5230   19.5120 N.3   115  ILE115     -0.1231
    118  CA        21.5580    8.8230   20.1420 C.3   115  ILE115      0.1692
    119  C         21.9500    9.7820   19.0280 C.2   115  ILE115      0.2592
    120  O         22.9960    9.6310   18.4070 O.2   115  ILE115     -0.2718
    121  CB        22.5080    8.9270   21.3200 C.3   115  ILE115      0.0266
    122  CG1       22.1120    7.8600   22.3850 C.3   115  ILE115      0.0019
    123  CG2       22.4240   10.3670   21.8540 C.3   115  ILE115      0.0020
    124  CD1       22.8290    8.0190   23.7340 C.3   115  ILE115      0.0001
    125  N         21.0850   10.7560   18.7360 N.am  116  ARG116     -0.1966
    126  CA        21.3760   11.6910   17.6770 C.3   116  ARG116      0.1729
    127  C         21.2130   13.1210   18.1660 C.2   116  ARG116      0.2616
    128  O         20.7700   13.3870   19.3100 O.2   116  ARG116     -0.2715
    129  CB        20.3660   11.4510   16.5460 C.3   116  ARG116      0.0348
    130  CG        20.6050   10.1590   15.7330 C.3   116  ARG116      0.0492
    131  CD        19.4150    9.8740   14.8310 C.3   116  ARG116      0.2205
    132  NE        19.4660    8.5950   14.0950 N.pl3 116  ARG116     -0.0865
    133  CZ        19.8920    8.4840   12.8350 C.cat 116  ARG116      0.5346
    134  NH1       20.3680    9.5310   12.1220 N.pl3 116  ARG116      0.1354
    135  NH2       19.8310    7.2700   12.2790 N.pl3 116  ARG116      0.1354
    136  N         21.5590   14.0470   17.2780 N.am  117  VAL117     -0.1977
    137  CA        21.4210   15.4670   17.5990 C.3   117  VAL117      0.1596
    138  C         21.0460   16.1820   16.3590 C.2   117  VAL117      0.2287
    139  O         21.3550   15.7150   15.2650 O.2   117  VAL117     -0.2864
    140  CB        22.7320   16.0710   18.0250 C.3   117  VAL117      0.0276
    141  CG1       23.2450   15.4110   19.2930 C.3   117  VAL117      0.0022
    142  CG2       23.7640   16.0350   16.8970 C.3   117  VAL117      0.0022
    143  N         30.7490   20.4030   11.7780 N.3   126  LEU126     -0.1231
    144  CA        29.4320   19.9900   12.2460 C.3   126  LEU126      0.1693
    145  C         29.2330   20.5090   13.7200 C.2   126  LEU126      0.2592
    146  O         30.1250   20.5280   14.5550 O.2   126  LEU126     -0.2718
    147  CB        29.3970   18.4670   12.2010 C.3   126  LEU126      0.0284
    148  CG        28.0360   17.9580   12.5700 C.3   126  LEU126      0.0019
    149  CD1       27.0470   18.3530   11.4450 C.3   126  LEU126      0.0001
    150  CD2       28.1580   16.4300   12.7570 C.3   126  LEU126      0.0001
    151  N         28.0480   20.9590   14.0760 N.am  127  ARG127     -0.1966
    152  CA        27.8450   21.4520   15.4080 C.3   127  ARG127      0.1729
    153  C         26.4160   21.1290   15.8870 C.2   127  ARG127      0.2616
    154  O         25.4240   21.4270   15.2040 O.2   127  ARG127     -0.2715
    155  CB        28.1030   22.9660   15.4020 C.3   127  ARG127      0.0348
    156  CG        27.3510   23.7090   16.5080 C.3   127  ARG127      0.0492
    157  CD        28.2680   24.3280   17.5580 C.3   127  ARG127      0.2205
    158  NE        29.0200   25.4860   17.0640 N.pl3 127  ARG127     -0.0865
    159  CZ        30.0370   26.0900   17.6990 C.cat 127  ARG127      0.5346
    160  NH1       30.4880   25.6790   18.8920 N.pl3 127  ARG127      0.1354
    161  NH2       30.6200   27.1450   17.1150 N.pl3 127  ARG127      0.1354
    162  N         26.3090   20.5300   17.0690 N.am  128  ALA128     -0.1977
    163  CA        25.0100   20.1970   17.5940 C.3   128  ALA128      0.1597
    164  C         24.2940   21.3910   18.1780 C.2   128  ALA128      0.2287
    165  O         24.9130   22.3340   18.6850 O.2   128  ALA128     -0.2864
    166  CB        25.1490   19.1860   18.7260 C.3   128  ALA128      0.0319
@<TRIPOS>BOND
     1    19    17    1
     2    17    18    1
     3    17    16    2
     4    22    23    2
     5    22    21    1
     6    16    15    1
     7    20    21    1
     8    21    24    1
     9    24    25    1
    10    15    14    1
    11    26    25   ar
    12    26    28   ar
    13    25    27   ar
    14     8     6   ar
    15    14    13    1
    16    37    36    2
    17    39    38    1
    18    28    29   ar
    19    13    10    1
    20    38    35    1
    21    38    40    1
    22    35    36    1
    23    35    34    1
    24    27    29   ar
    25    27    30   ar
    26    36    41   am
    27     6     5    1
    28     6     7   ar
    29     5     2    1
    30     3     4    2
    31     3     2    1
    32    29    31   ar
    33    30    32   ar
    34    11    12    2
    35    11    10    1
    36    10     9    1
    37     2     1    1
    38    41    42    1
    39    42    43    1
    40    31    33   ar
    41    32    33   ar
    42    43    45   am
    43    43    44    2
    44    45    46    1
    45   149   148    1
    46   143   144    1
    47   134   133    1
    48   147   144    1
    49   147   148    1
    50   144   145    1
    51   135   133    1
    52    50    49    1
    53   148   150    1
    54    56    53    1
    55    56    57    1
    56    58    52    1
    57    58    57    2
    58    52    53    1
    59    52    47   am
    60    53    54    1
    61    46    47    1
    62    46    49    1
    63    47    48    2
    64   133   132    2
    65    49    51    1
    66    65    63    1
    67   145   151   am
    68   145   146    2
    69    59    54   am
    70    59    60    1
    71    54    55    2
    72   151   152    1
    73   132   131    1
    74    63    60    1
    75    63    64    1
    76   131   130    1
    77    60    61    1
    78    66    64    1
    79    62    61    2
    80   154   153    2
    81   139   138    2
    82   155   152    1
    83   155   156    1
    84   152   153    1
    85   130   129    1
    86    61    67   am
    87   153   162   am
    88   138   137    1
    89   156   157    1
    90   129   126    1
    91   142   140    1
    92   158   157    1
    93   158   159    2
    94   162   163    1
    95   161   159    1
    96    67    68    1
    97   136   137    1
    98   136   127   am
    99   163   164    1
   100   163   166    1
   101   137   140    1
   102   126   127    1
   103   126   125    1
   104   159   160    1
   105   140   141    1
   106    68    69    1
   107    68    71    1
   108   127   128    2
   109   164   165    2
   110    72    71    1
   111   120   119    2
   112   125   119   am
   113    69    74   am
   114    69    70    2
   115    77    76    2
   116    74    75    1
   117    71    73    1
   118   119   118    1
   119    76    75    1
   120   117   118    1
   121    75    78    1
   122   118   121    1
   123   105   104    2
   124    78    79    1
   125   121   123    1
   126   121   122    1
   127   104   103    1
   128   104   111   am
   129   112   113    1
   130   112   115    1
   131   112   111    1
   132   108   109    1
   133   108   107    1
   134   106   103    1
   135   106   107    1
   136   113   114    2
   137   122   124    1
   138   110   109    1
   139   103   102    1
   140   115   116    1
   141    94    93    2
   142   102    93   am
   143    93    92    1
   144    80    81    1
   145    92    91    1
   146    92    95    1
   147   100    99    1
   148    91    82   am
   149    82    83    2
   150    82    81    1
   151    84    81    1
   152    84    85    1
   153    96    95    1
   154    96    97    1
   155    86    85    1
   156    86    87    1
   157    89    88    1
   158    99   101    1
   159    99    98    2
   160    88    87    2
   161    88    90    1
   162    97    98    1
