@<TRIPOS>MOLECULE
tmp/1lo8A00.pdb
 171 166 0 0 0
SMALL
GASTEIGER

@<TRIPOS>ATOM
      1  N         17.3410    4.2090    9.6380 N.3    31  ASP31      -0.1239
      2  CA        17.5340    5.6280    9.3200 C.3    31  ASP31       0.1674
      3  C         16.3300    6.1640    8.5580 C.2    31  ASP31       0.2266
      4  O         15.9220    7.3100    8.7700 O.2    31  ASP31      -0.2867
      5  CB        18.7700    5.8870    8.4380 C.3    31  ASP31       0.1410
      6  CG        19.0570    7.3800    8.4410 C.2    31  ASP31       0.3668
      7  OD1       19.1510    8.0370    9.4700 O.co2  31  ASP31      -0.2456
      8  OD2       19.2130    7.8990    7.2590 O.co2  31  ASP31      -0.2456
      9  N         13.5200    9.1380    9.9430 N.3    35  ARG35      -0.1245
     10  CA        13.0470   10.3360    9.2210 C.3    35  ARG35       0.1563
     11  C         11.5560   10.2310    8.9230 C.2    35  ARG35       0.2260
     12  O         10.8170   11.2020    9.0210 O.2    35  ARG35      -0.2867
     13  CB        13.8360   10.4930    7.9240 C.3    35  ARG35       0.0307
     14  CG        13.8530   11.8910    7.3350 C.3    35  ARG35       0.0489
     15  CD        14.6220   11.9450    6.0240 C.3    35  ARG35       0.2205
     16  NE        14.0980   11.0370    4.9930 N.pl3  35  ARG35      -0.0865
     17  CZ        13.1410   11.4140    4.1470 C.cat  35  ARG35       0.5346
     18  NH1       12.6010   12.6190    4.2520 N.pl3  35  ARG35       0.1354
     19  NH2       12.6960   10.5560    3.2080 N.pl3  35  ARG35       0.1354
     20  N         14.2320   17.8000    5.3780 N.3    46  TRP46      -0.1241
     21  CA        15.4640   18.5110    5.6420 C.3    46  TRP46       0.1605
     22  C         15.7250   19.5370    4.5450 C.2    46  TRP46       0.2264
     23  O         16.1130   20.6660    4.7960 O.2    46  TRP46      -0.2867
     24  CB        16.6630   17.5540    5.8080 C.3    46  TRP46       0.0550
     25  CG        16.4140   16.4180    6.7750 C.ar   46  TRP46       0.0003
     26  CD1       16.8730   15.1290    6.6580 C.ar   46  TRP46       0.0946
     27  CD2       15.6620   16.4560    8.0110 C.ar   46  TRP46       0.0152
     28  NE1       16.4550   14.3620    7.7200 N.ar   46  TRP46      -0.2442
     29  CE2       15.7080   15.1590    8.5680 C.ar   46  TRP46       0.0810
     30  CE3       14.9630   17.4580    8.7090 C.ar   46  TRP46       0.0012
     31  CZ2       15.0910   14.8710    9.7620 C.ar   46  TRP46       0.0191
     32  CZ3       14.3400   17.1430    9.8870 C.ar   46  TRP46       0.0001
     33  CH2       14.4160   15.8630   10.4060 C.ar   46  TRP46       0.0015
     34  N         19.8170   20.5490    8.9740 N.3    56  VAL56      -0.1231
     35  CA        20.2050   19.6520    7.8790 C.3    56  VAL56       0.1692
     36  C         19.7020   18.2410    8.1010 C.2    56  VAL56       0.2593
     37  O         19.7730   17.4060    7.2090 O.2    56  VAL56      -0.2718
     38  CB        21.7320   19.5030    7.7360 C.3    56  VAL56       0.0266
     39  CG1       22.4200   20.8430    7.5420 C.3    56  VAL56       0.0020
     40  CG2       22.3510   18.7830    8.9430 C.3    56  VAL56       0.0020
     41  N         19.2360   17.9420    9.3020 N.am   57  GLY57      -0.1942
     42  CA        18.7500   16.5890    9.5880 C.3    57  GLY57       0.2014
     43  C         18.9890   16.2580   11.0500 C.2    57  GLY57       0.2640
     44  O         19.1970   17.1570   11.8490 O.2    57  GLY57      -0.2714
     45  N         18.9750   14.9560   11.3720 N.am   58  THR58      -0.1937
     46  CA        19.1780   14.4680   12.7360 C.3    58  THR58       0.2013
     47  C         20.2570   13.3930   12.8010 C.2    58  THR58       0.2484
     48  O         19.9270   12.2100   12.9110 O.2    58  THR58      -0.2729
     49  CB        17.8710   13.9310   13.3550 C.3    58  THR58       0.1807
     50  OG1       17.3960   12.8490   12.5550 O.3    58  THR58      -0.2208
     51  CG2       16.8130   15.0170   13.3080 C.3    58  THR58       0.0379
     52  N         21.5330   13.7820   12.7270 N.am   59  PRO59      -0.2715
     53  CA        22.6450   12.8300   12.7590 C.3    59  PRO59       0.1536
     54  C         22.6500   11.9760   14.0130 C.2    59  PRO59       0.2598
     55  O         22.2530   12.3640   15.1200 O.2    59  PRO59      -0.2715
     56  CB        23.9370   13.6320   12.8060 C.3    59  PRO59       0.0310
     57  CG        23.5470   15.0830   12.9700 C.3    59  PRO59       0.0237
     58  CD        22.0490   15.1660   12.6610 C.3    59  PRO59       0.0939
     59  N         23.1770   10.7740   13.8660 N.am   60  ILE60      -0.1964
     60  CA        23.2120    9.8940   15.0020 C.3    60  ILE60       0.1727
     61  C         24.4980   10.0950   15.7650 C.2    60  ILE60       0.2616
     62  O         25.5650   10.3270   15.1770 O.2    60  ILE60      -0.2715
     63  CB        23.0310    8.4510   14.5050 C.3    60  ILE60       0.0290
     64  CG1       22.8180    7.4920   15.6600 C.3    60  ILE60       0.0022
     65  CG2       24.1590    7.9930   13.5560 C.3    60  ILE60       0.0023
     66  CD1       22.4610    6.0860   15.1210 C.3    60  ILE60       0.0001
     67  N         24.3850   10.0310   17.0900 N.am   61  VAL61      -0.1963
     68  CA        25.5030   10.2040   18.0450 C.3    61  VAL61       0.1727
     69  C         25.7550    8.9250   18.8400 C.2    61  VAL61       0.2616
     70  O         26.8550    8.6460   19.2740 O.2    61  VAL61      -0.2715
     71  CB        25.3770   11.4200   18.9880 C.3    61  VAL61       0.0290
     72  CG1       25.4240   12.6970   18.1520 C.3    61  VAL61       0.0023
     73  CG2       24.0730   11.4560   19.7800 C.3    61  VAL61       0.0023
     74  N         24.7390    8.0860   18.9700 N.am   62  SER62      -0.1950
     75  CA        24.9390    6.8730   19.7260 C.3    62  SER62       0.1924
     76  C         23.9260    5.7960   19.3690 C.2    62  SER62       0.2314
     77  O         22.7960    6.0680   18.9970 O.2    62  SER62      -0.2863
     78  CB        24.7780    7.2780   21.1860 C.3    62  SER62       0.2116
     79  OG        25.0200    6.1590   21.9810 O.3    62  SER62      -0.2180
     80  N         15.8370   15.1770   25.4430 N.3    87  ARG87      -0.1231
     81  CA        16.8480   15.6340   26.3360 C.3    87  ARG87       0.1694
     82  C         17.1040   17.0440   25.9430 C.2    87  ARG87       0.2592
     83  O         16.2920   17.6010   25.2130 O.2    87  ARG87      -0.2718
     84  CB        18.0970   14.7680   26.3830 C.3    87  ARG87       0.0321
     85  CG        17.7800   13.2830   26.6070 C.3    87  ARG87       0.0489
     86  CD        18.9750   12.3710   26.3560 C.3    87  ARG87       0.2205
     87  NE        18.7350   11.0670   26.9340 N.pl3  87  ARG87      -0.0865
     88  CZ        19.6360   10.1030   27.0800 C.cat  87  ARG87       0.5346
     89  NH1       20.9030   10.2470   26.6840 N.pl3  87  ARG87       0.1354
     90  NH2       19.2420    8.9500   27.6260 N.pl3  87  ARG87       0.1354
     91  N         18.2210   17.5960   26.3570 N.am   88  ARG88      -0.1966
     92  CA        18.4700   18.9740   26.0010 C.3    88  ARG88       0.1729
     93  C         18.6820   19.2230   24.5260 C.2    88  ARG88       0.2616
     94  O         17.9170   19.9510   23.9060 O.2    88  ARG88      -0.2715
     95  CB        19.6130   19.5620   26.8050 C.3    88  ARG88       0.0348
     96  CG        19.9950   20.9800   26.4030 C.3    88  ARG88       0.0492
     97  CD        20.5630   21.7400   27.5880 C.3    88  ARG88       0.2205
     98  NE        20.1850   23.1420   27.5650 N.pl3  88  ARG88      -0.0865
     99  CZ        20.9110   24.0140   26.8890 C.cat  88  ARG88       0.5346
    100  NH1       22.0020   23.6460   26.2130 N.pl3  88  ARG88       0.1354
    101  NH2       20.5360   25.2780   26.8650 N.pl3  88  ARG88       0.1354
    102  N         19.7670   18.6720   24.0100 N.am   89  LYS89      -0.1963
    103  CA        20.1290   18.8100   22.6100 C.3    89  LYS89       0.1728
    104  C         20.0780   17.4760   21.8850 C.2    89  LYS89       0.2616
    105  O         20.5210   17.3470   20.7630 O.2    89  LYS89      -0.2715
    106  CB        21.5250   19.3730   22.4690 C.3    89  LYS89       0.0311
    107  CG        21.6870   20.7900   23.0200 C.3    89  LYS89       0.0038
    108  CD        23.1050   21.2740   22.7740 C.3    89  LYS89       0.0206
    109  CE        23.2920   22.7680   22.9400 C.3    89  LYS89       0.1093
    110  NZ        24.6330   23.2120   22.5290 N.3    89  LYS89      -0.1314
    111  N         19.5410   16.4610   22.5350 N.am   90  SER90      -0.1950
    112  CA        19.4880   15.1490   21.9330 C.3    90  SER90       0.1924
    113  C         18.1550   14.5200   22.1860 C.2    90  SER90       0.2314
    114  O         17.3000   15.0610   22.8840 O.2    90  SER90      -0.2863
    115  CB        20.5820   14.2730   22.5000 C.3    90  SER90       0.2116
    116  OG        20.6200   14.4160   23.8970 O.3    90  SER90      -0.2180
    117  N         20.3840    7.5070   19.5960 N.3   115  ILE115     -0.1231
    118  CA        20.4910    8.8210   20.1800 C.3   115  ILE115      0.1692
    119  C         20.9210    9.7250   19.0530 C.2   115  ILE115      0.2592
    120  O         21.9730    9.5220   18.4670 O.2   115  ILE115     -0.2718
    121  CB        21.4250    8.8890   21.3830 C.3   115  ILE115      0.0266
    122  CG1       20.9640    7.9040   22.4150 C.3   115  ILE115      0.0019
    123  CG2       21.4680   10.2850   22.0050 C.3   115  ILE115      0.0020
    124  CD1       21.7150    8.1380   23.7290 C.3   115  ILE115      0.0001
    125  N         20.0660   10.7000   18.7300 N.am  116  ARG116     -0.1966
    126  CA        20.3200   11.6180   17.6480 C.3   116  ARG116      0.1729
    127  C         20.1530   13.0460   18.1110 C.2   116  ARG116      0.2616
    128  O         19.6800   13.3110   19.2010 O.2   116  ARG116     -0.2715
    129  CB        19.3460   11.3670   16.4710 C.3   116  ARG116      0.0348
    130  CG        19.4020    9.9830   15.7980 C.3   116  ARG116      0.0492
    131  CD        18.2330    9.7940   14.8650 C.3   116  ARG116      0.2205
    132  NE        18.2870    8.5210   14.1340 N.pl3 116  ARG116     -0.0865
    133  CZ        18.7860    8.4170   12.9080 C.cat 116  ARG116      0.5346
    134  NH1       19.3190    9.4390   12.2170 N.pl3 116  ARG116      0.1354
    135  NH2       18.7550    7.2410   12.3280 N.pl3 116  ARG116      0.1354
    136  N         20.5520   13.9750   17.2660 N.am  117  VAL117     -0.1977
    137  CA        20.3820   15.3990   17.5710 C.3   117  VAL117      0.1596
    138  C         19.9600   16.1360   16.2970 C.2   117  VAL117      0.2287
    139  O         20.2310   15.6750   15.1640 O.2   117  VAL117     -0.2864
    140  CB        21.7000   16.0400   18.0120 C.3   117  VAL117      0.0276
    141  CG1       22.3940   15.3260   19.1370 C.3   117  VAL117      0.0022
    142  CG2       22.6560   16.0640   16.8170 C.3   117  VAL117      0.0022
    143  N         20.7540   18.9910   13.8380 N.3   119  ALA119     -0.1245
    144  CA        22.0140   19.6490   13.6050 C.3   119  ALA119      0.1562
    145  C         22.0320   20.6020   12.4520 C.2   119  ALA119      0.2260
    146  O         21.2910   20.5440   11.4830 O.2   119  ALA119     -0.2867
    147  CB        23.1310   18.6720   13.2990 C.3   119  ALA119      0.0290
    148  N         29.6880   20.3970   11.6250 N.3   126  LEU126     -0.1231
    149  CA        28.3790   19.9660   12.0770 C.3   126  LEU126      0.1693
    150  C         28.0930   20.4070   13.5430 C.2   126  LEU126      0.2592
    151  O         28.8950   20.2260   14.4420 O.2   126  LEU126     -0.2718
    152  CB        28.3640   18.4410   12.0720 C.3   126  LEU126      0.0284
    153  CG        26.9500   17.9130   12.1160 C.3   126  LEU126      0.0019
    154  CD1       26.2780   18.2230   10.7810 C.3   126  LEU126      0.0001
    155  CD2       27.0370   16.4020   12.3080 C.3   126  LEU126      0.0001
    156  N         26.9440   20.9820   13.8540 N.am  127  ARG127     -0.1966
    157  CA        26.6910   21.4360   15.2140 C.3   127  ARG127      0.1729
    158  C         25.2950   21.0550   15.7300 C.2   127  ARG127      0.2616
    159  O         24.3020   21.2830   15.0780 O.2   127  ARG127     -0.2715
    160  CB        26.9060   22.9580   15.1650 C.3   127  ARG127      0.0348
    161  CG        26.3040   23.8050   16.2880 C.3   127  ARG127      0.0492
    162  CD        27.3940   24.2440   17.2700 C.3   127  ARG127      0.2205
    163  NE        27.9510   25.5860   17.0710 N.pl3 127  ARG127     -0.0865
    164  CZ        29.0370   26.0130   17.7250 C.cat 127  ARG127      0.5346
    165  NH1       29.6980   25.2400   18.6060 N.pl3 127  ARG127      0.1354
    166  NH2       29.4510   27.2580   17.5020 N.pl3 127  ARG127      0.1354
    167  N         25.1940   20.4650   16.9130 N.am  128  ALA128     -0.1977
    168  CA        23.8710   20.1180   17.4390 C.3   128  ALA128      0.1597
    169  C         23.1060   21.3070   17.9780 C.2   128  ALA128      0.2287
    170  O         23.6680   22.2290   18.5480 O.2   128  ALA128     -0.2864
    171  CB        23.9870   19.1610   18.6130 C.3   128  ALA128      0.0319
@<TRIPOS>BOND
     1    19    17    1
     2    17    18    1
     3    17    16    2
     4    22    23    2
     5    22    21    1
     6    16    15    1
     7    20    21    1
     8    21    24    1
     9    24    25    1
    10    15    14    1
    11    26    25   ar
    12    26    28   ar
    13    25    27   ar
    14    37    36    2
    15     8     6   ar
    16    14    13    1
    17    39    38    1
    18    28    29   ar
    19    38    35    1
    20    38    40    1
    21    35    36    1
    22    35    34    1
    23    13    10    1
    24    27    29   ar
    25    27    30   ar
    26    36    41   am
    27     5     6    1
    28     5     2    1
    29     6     7   ar
    30     3     4    2
    31     3     2    1
    32    29    31   ar
    33    30    32   ar
    34    11    12    2
    35    11    10    1
    36    10     9    1
    37    41    42    1
    38     2     1    1
    39    42    43    1
    40    31    33   ar
    41    32    33   ar
    42   154   153    1
    43    43    45   am
    44    43    44    2
    45    45    46    1
    46   146   145    2
    47   148   149    1
    48   152   149    1
    49   152   153    1
    50   149   150    1
    51   153   155    1
    52   134   133    1
    53   135   133    1
    54   145   144    1
    55    50    49    1
    56    58    52    1
    57    58    57    1
    58    52    53    1
    59    52    47   am
    60    46    47    1
    61    46    49    1
    62    53    56    1
    63    53    54    1
    64    47    48    2
    65    56    57    1
    66   133   132    2
    67   147   144    1
    68    51    49    1
    69   150   156   am
    70   150   151    2
    71    65    63    1
    72   144   143    1
    73   156   157    1
    74    59    54   am
    75    59    60    1
    76    54    55    2
    77   132   131    1
    78    63    60    1
    79    63    64    1
    80   131   130    1
    81    60    61    1
    82   159   158    2
    83    66    64    1
    84   139   138    2
    85   160   157    1
    86   160   161    1
    87    62    61    2
    88   157   158    1
    89   158   167   am
    90    61    67   am
    91   130   129    1
    92   161   162    1
    93   138   137    1
    94   129   126    1
    95   142   140    1
    96   167   168    1
    97   163   162    1
    98   163   164    2
    99    67    68    1
   100   136   137    1
   101   136   127   am
   102   168   169    1
   103   168   171    1
   104   166   164    1
   105   137   140    1
   106   126   127    1
   107   126   125    1
   108   164   165    1
   109   169   170    2
   110   140   141    1
   111    68    69    1
   112    68    71    1
   113   127   128    2
   114    72    71    1
   115   120   119    2
   116   125   119   am
   117    69    74   am
   118    69    70    2
   119    74    75    1
   120    71    73    1
   121    77    76    2
   122   119   118    1
   123    76    75    1
   124   117   118    1
   125    75    78    1
   126   118   121    1
   127   105   104    2
   128    78    79    1
   129   121   123    1
   130   121   122    1
   131   104   111   am
   132   104   103    1
   133   112   113    1
   134   112   115    1
   135   112   111    1
   136   113   114    2
   137   122   124    1
   138   106   103    1
   139   106   107    1
   140   115   116    1
   141   110   109    1
   142   103   102    1
   143   108   109    1
   144   108   107    1
   145    94    93    2
   146   102    93   am
   147    93    92    1
   148    83    82    2
   149    80    81    1
   150    82    81    1
   151    82    91   am
   152    92    91    1
   153    92    95    1
   154   100    99    1
   155    81    84    1
   156    86    85    1
   157    86    87    1
   158    84    85    1
   159    96    95    1
   160    96    97    1
   161    89    88    1
   162   101    99    1
   163    99    98    2
   164    87    88    2
   165    88    90    1
   166    98    97    1
