@<TRIPOS>MOLECULE
tmp/1loaC00.pdb
 78 76 0 0 0
SMALL
GASTEIGER

@<TRIPOS>ATOM
      1  N         -9.7070   45.5890   11.1580 N.3    39  ASN39      -0.1240
      2  CA        -8.4490   46.1900   10.7950 C.3    39  ASN39       0.1653
      3  C         -7.3930   46.2970   11.8320 C.2    39  ASN39       0.2266
      4  O         -6.4150   47.0060   11.5840 O.2    39  ASN39      -0.2867
      5  CB        -8.6970   47.5830   10.2410 C.3    39  ASN39       0.1155
      6  CG        -9.1280   47.5790    8.7820 C.2    39  ASN39       0.2627
      7  OD1       -8.3140   47.2850    7.9080 O.2    39  ASN39      -0.2716
      8  ND2      -10.3610   47.8950    8.3910 N.am   39  ASN39      -0.0877
      9  N        -12.0810   36.6040   10.1000 N.3    80  ALA80      -0.1231
     10  CA       -10.7950   36.9110    9.4850 C.3    80  ALA80       0.1694
     11  C         -9.8990   37.4190   10.6320 C.2    80  ALA80       0.2592
     12  O        -10.4340   37.6750   11.7270 O.2    80  ALA80      -0.2718
     13  CB       -10.9390   38.0320    8.4140 C.3    80  ALA80       0.0304
     14  N         -8.5750   37.5710   10.5930 N.am   81  ASP81      -0.1974
     15  CA        -7.7500   36.9550    9.5660 C.3    81  ASP81       0.1709
     16  C         -7.0920   35.6570   10.0200 C.2    81  ASP81       0.2293
     17  O         -6.9220   34.6960    9.2460 O.2    81  ASP81      -0.2864
     18  CB        -6.7070   38.0110    9.1240 C.3    81  ASP81       0.1436
     19  CG        -7.0770   38.6030    7.7590 C.2    81  ASP81       0.3671
     20  OD1       -6.8860   37.9430    6.7230 O.co2  81  ASP81      -0.2456
     21  OD2       -7.5910   39.7100    7.6770 O.co2  81  ASP81      -0.2456
     22  N         -0.8820   44.2960    8.3190 N.3    97  GLY97      -0.1210
     23  CA        -2.0470   43.7530    8.9900 C.3    97  GLY97       0.1956
     24  C         -2.8470   42.9820    7.9810 C.2    97  GLY97       0.2612
     25  O         -2.3370   42.5520    6.9370 O.2    97  GLY97      -0.2717
     26  N         -4.1220   42.7850    8.2470 N.am   98  GLY98      -0.1942
     27  CA        -4.9480   41.9770    7.3420 C.3    98  GLY98       0.2014
     28  C         -4.4350   40.5580    7.0880 C.2    98  GLY98       0.2639
     29  O         -3.8630   39.8890    7.9550 O.2    98  GLY98      -0.2714
     30  N         -4.5050   40.0930    5.8500 N.am   99  GLY99      -0.1939
     31  CA        -4.1710   38.7210    5.4830 C.3    99  GLY99       0.2014
     32  C         -2.7610   38.2560    5.6340 C.2    99  GLY99       0.2638
     33  O         -2.4980   37.0640    5.3510 O.2    99  GLY99      -0.2714
     34  N         -1.9130   39.1840    6.0630 N.am  100  TYR100     -0.1973
     35  CA        -0.5060   38.8970    6.2520 C.3   100  TYR100      0.1639
     36  C         -0.1960   38.6530    7.6970 C.2   100  TYR100      0.2290
     37  O          0.9590   38.4060    8.0860 O.2   100  TYR100     -0.2864
     38  CB         0.3950   40.0490    5.7830 C.3   100  TYR100      0.0560
     39  CG         0.3440   40.3670    4.2940 C.ar  100  TYR100     -0.0198
     40  CD1       -0.8310   40.8110    3.7190 C.ar  100  TYR100     -0.0009
     41  CD2        1.4550   40.2030    3.5040 C.ar  100  TYR100     -0.0009
     42  CE1       -0.9010   41.0950    2.3660 C.ar  100  TYR100      0.0417
     43  CE2        1.3770   40.4670    2.1450 C.ar  100  TYR100      0.0417
     44  CZ         0.2150   40.9200    1.5890 C.ar  100  TYR100      0.1957
     45  OH         0.1660   41.2470    0.2550 O.3   100  TYR100     -0.2866
     46  N         -9.2650   33.1900    6.7680 N.3   123  PHE123     -0.1241
     47  CA        -9.8140   33.9440    5.6920 C.3   123  PHE123      0.1605
     48  C         -8.8560   33.7090    4.5490 C.2   123  PHE123      0.2264
     49  O         -7.5770   33.7420    4.6110 O.2   123  PHE123     -0.2867
     50  CB        -9.8720   35.3950    6.1370 C.3   123  PHE123      0.0534
     51  CG       -10.3950   36.3530    5.0710 C.ar  123  PHE123     -0.0203
     52  CD1      -11.7580   36.5150    4.9030 C.ar  123  PHE123     -0.0042
     53  CD2       -9.5050   37.0200    4.2660 C.ar  123  PHE123     -0.0042
     54  CE1      -12.2490   37.3430    3.9240 C.ar  123  PHE123     -0.0003
     55  CE2      -10.0000   37.8410    3.2900 C.ar  123  PHE123     -0.0003
     56  CZ       -11.3620   38.0030    3.1160 C.ar  123  PHE123     -0.0000
     57  N         -7.3250   34.5900    1.0870 N.3   125  ASN125     -0.1240
     58  CA        -6.8820   35.8040    0.4050 C.3   125  ASN125      0.1653
     59  C         -6.4250   35.2340   -0.9190 C.2   125  ASN125      0.2266
     60  O         -5.3090   34.7160   -1.0100 O.2   125  ASN125     -0.2867
     61  CB        -5.7260   36.4120    1.1830 C.3   125  ASN125      0.1155
     62  CG        -6.0400   36.5190    2.6750 C.2   125  ASN125      0.2627
     63  OD1       -5.8920   35.5450    3.5010 O.2   125  ASN125     -0.2716
     64  ND2       -6.5810   37.6700    3.0340 N.am  125  ASN125     -0.0877
     65  N         -2.6140   34.1040   -2.3740 N.3   128  TRP128     -0.1241
     66  CA        -1.5810   33.1530   -1.8850 C.3   128  TRP128      0.1605
     67  C         -2.0480   31.8980   -1.1100 C.2   128  TRP128      0.2264
     68  O         -1.2620   31.0950   -0.5830 O.2   128  TRP128     -0.2867
     69  CB        -0.5710   33.9400   -1.0190 C.3   128  TRP128      0.0550
     70  CG        -1.1580   34.7770    0.1340 C.ar  128  TRP128      0.0003
     71  CD1       -1.4550   34.2330    1.3590 C.ar  128  TRP128      0.0946
     72  CD2       -1.5000   36.1040    0.0830 C.ar  128  TRP128      0.0152
     73  NE1       -2.0030   35.1980    2.0840 N.ar  128  TRP128     -0.2442
     74  CE2       -2.0410   36.3090    1.3440 C.ar  128  TRP128      0.0810
     75  CE3       -1.4300   37.1230   -0.8320 C.ar  128  TRP128      0.0012
     76  CZ2       -2.5300   37.5240    1.7370 C.ar  128  TRP128      0.0191
     77  CZ3       -1.9180   38.3420   -0.4490 C.ar  128  TRP128      0.0001
     78  CH2       -2.4590   38.5360    0.8100 C.ar  128  TRP128      0.0015
@<TRIPOS>BOND
     1    65    66    1
     2    66    67    1
     3    66    69    1
     4    67    68    2
     5    69    70    1
     6    60    59    2
     7    59    58    1
     8    75    77   ar
     9    75    72   ar
    10    77    78   ar
    11    72    70   ar
    12    72    74   ar
    13    70    71   ar
    14    45    44    1
    15    58    57    1
    16    58    61    1
    17    78    76   ar
    18    61    62    1
    19    74    76   ar
    20    74    73   ar
    21    71    73   ar
    22    44    43   ar
    23    44    42   ar
    24    43    41   ar
    25    42    40   ar
    26    62    64   am
    27    62    63    2
    28    56    55   ar
    29    56    54   ar
    30    55    53   ar
    31    41    39   ar
    32    40    39   ar
    33    54    52   ar
    34    53    51   ar
    35    39    38    1
    36    48    49    2
    37    48    47    1
    38    52    51   ar
    39    51    50    1
    40    33    32    2
    41    31    32    1
    42    31    30    1
    43    32    34   am
    44    47    50    1
    45    47    46    1
    46    38    35    1
    47    30    28   am
    48    34    35    1
    49    35    36    1
    50    20    19   ar
    51    25    24    2
    52    28    27    1
    53    28    29    2
    54    27    26    1
    55    21    19   ar
    56    36    37    2
    57    19    18    1
    58     7     6    2
    59    24    26   am
    60    24    23    1
    61    22    23    1
    62     8     6   am
    63    13    10    1
    64     6     5    1
    65    18    15    1
    66    17    16    2
    67    10     9    1
    68    10    11    1
    69    15    16    1
    70    15    14    1
    71     5     2    1
    72    14    11   am
    73    11    12    2
    74     2     1    1
    75     2     3    1
    76     4     3    2
