@<TRIPOS>MOLECULE
tmp/1locD00.pdb
 85 83 0 0 0
SMALL
GASTEIGER

@<TRIPOS>ATOM
      1  N         -9.8340   46.0930   11.1730 N.3    39  ASN39      -0.1240
      2  CA        -8.5080   46.6530   10.9740 C.3    39  ASN39       0.1653
      3  C         -7.5880   46.7540   12.1760 C.2    39  ASN39       0.2266
      4  O         -6.9540   47.7960   12.3950 O.2    39  ASN39      -0.2867
      5  CB        -8.6330   48.0490   10.3530 C.3    39  ASN39       0.1155
      6  CG        -9.1940   48.0240    8.9520 C.2    39  ASN39       0.2627
      7  OD1       -9.0220   47.0860    8.1790 O.2    39  ASN39      -0.2716
      8  ND2       -9.8970   49.0710    8.5690 N.am   39  ASN39      -0.0877
      9  N        -12.2980   36.9300    9.9400 N.3    80  ALA80      -0.1231
     10  CA       -10.9730   37.2880    9.4580 C.3    80  ALA80       0.1694
     11  C        -10.1220   37.8910   10.6060 C.2    80  ALA80       0.2592
     12  O        -10.7060   38.2450   11.6520 O.2    80  ALA80      -0.2718
     13  CB       -11.0870   38.3080    8.3300 C.3    80  ALA80       0.0304
     14  N         -8.7680   37.9890   10.5720 N.am   81  ASP81      -0.1974
     15  CA        -7.9040   37.3240    9.5940 C.3    81  ASP81       0.1709
     16  C         -7.2470   36.0280    9.9930 C.2    81  ASP81       0.2293
     17  O         -7.0270   35.1390    9.1530 O.2    81  ASP81      -0.2864
     18  CB        -6.8460   38.3390    9.1570 C.3    81  ASP81       0.1436
     19  CG        -7.2950   39.0290    7.8920 C.2    81  ASP81       0.3671
     20  OD1       -7.1750   38.3950    6.8380 O.co2  81  ASP81      -0.2456
     21  OD2       -7.7850   40.1610    7.9300 O.co2  81  ASP81      -0.2456
     22  N          2.8340   44.0910    7.8470 N.3    96  THR96      -0.1203
     23  CA         1.5300   44.4860    7.3200 C.3    96  THR96       0.1994
     24  C          0.3710   43.7770    8.0150 C.2    96  THR96       0.2618
     25  O          0.4740   42.6180    8.4570 O.2    96  THR96      -0.2717
     26  CB         1.5080   44.2220    5.7940 C.3    96  THR96       0.1784
     27  OG1        2.6250   44.9650    5.3320 O.3    96  THR96      -0.2211
     28  CG2        0.3310   44.7580    5.0110 C.3    96  THR96       0.0376
     29  N         -0.7280   44.5310    8.1450 N.am   97  GLY97      -0.1942
     30  CA        -1.9470   44.0380    8.7410 C.3    97  GLY97       0.2014
     31  C         -2.7260   43.1810    7.7690 C.2    97  GLY97       0.2639
     32  O         -2.2270   42.6690    6.7620 O.2    97  GLY97      -0.2714
     33  N         -3.9980   42.9920    8.0990 N.am   98  GLY98      -0.1939
     34  CA        -4.9400   42.2590    7.2600 C.3    98  GLY98       0.2014
     35  C         -4.4330   40.8650    6.9840 C.2    98  GLY98       0.2639
     36  O         -3.7670   40.2610    7.8430 O.2    98  GLY98      -0.2714
     37  N         -4.6490   40.4000    5.7640 N.am   99  GLY99      -0.1939
     38  CA        -4.2680   39.0710    5.3770 C.3    99  GLY99       0.2014
     39  C         -2.8030   38.7490    5.5230 C.2    99  GLY99       0.2638
     40  O         -2.4380   37.5680    5.3700 O.2    99  GLY99      -0.2714
     41  N         -1.9480   39.7250    5.7870 N.am  100  TYR100     -0.1973
     42  CA        -0.5390   39.4540    6.0430 C.3   100  TYR100      0.1639
     43  C         -0.1960   39.0760    7.4840 C.2   100  TYR100      0.2290
     44  O          0.9530   38.8390    7.8490 O.2   100  TYR100     -0.2864
     45  CB         0.2450   40.6610    5.6390 C.3   100  TYR100      0.0560
     46  CG         0.2250   40.7910    4.1450 C.ar  100  TYR100     -0.0198
     47  CD1        1.0810   40.0180    3.4110 C.ar  100  TYR100     -0.0009
     48  CD2       -0.5930   41.7340    3.5660 C.ar  100  TYR100     -0.0009
     49  CE1        1.1460   40.1980    2.0540 C.ar  100  TYR100      0.0417
     50  CE2       -0.5340   41.9230    2.2010 C.ar  100  TYR100      0.0417
     51  CZ         0.3450   41.1520    1.4640 C.ar  100  TYR100      0.1957
     52  OH         0.4610   41.3620    0.1130 O.3   100  TYR100     -0.2866
     53  N         -9.2160   33.4660    6.7020 N.3   123  PHE123     -0.1298
     54  CA        -9.6610   34.1640    5.5180 C.3   123  PHE123      0.1290
     55  C         -8.7130   33.9770    4.3090 C.3   123  PHE123      0.2013
     56  O         -7.4290   34.1970    4.3030 O.3   123  PHE123     -0.2188
     57  CB        -9.7970   35.6080    5.9100 C.3   123  PHE123      0.0480
     58  CG       -10.3010   36.4870    4.8010 C.ar  123  PHE123     -0.0206
     59  CD1       -9.4210   37.0830    3.9370 C.ar  123  PHE123     -0.0042
     60  CD2      -11.6450   36.6880    4.6550 C.ar  123  PHE123     -0.0042
     61  CE1       -9.8700   37.8850    2.9150 C.ar  123  PHE123     -0.0003
     62  CE2      -12.0980   37.4960    3.6310 C.ar  123  PHE123     -0.0003
     63  CZ       -11.2130   38.0950    2.7590 C.ar  123  PHE123     -0.0000
     64  N         -7.4780   34.6870    0.7860 N.3   125  ASN125     -0.1240
     65  CA        -6.9900   35.8100    0.0100 C.3   125  ASN125      0.1653
     66  C         -6.4740   35.1180   -1.2460 C.2   125  ASN125      0.2266
     67  O         -5.4990   34.3580   -1.1900 O.2   125  ASN125     -0.2867
     68  CB        -5.8240   36.5200    0.6530 C.3   125  ASN125      0.1155
     69  CG        -6.1110   37.1730    1.9860 C.2   125  ASN125      0.2627
     70  OD1       -6.0300   36.4870    3.0310 O.2   125  ASN125     -0.2716
     71  ND2       -6.3690   38.4680    2.0410 N.am  125  ASN125     -0.0877
     72  N         -2.6730   34.3750   -2.6970 N.3   128  TRP128     -0.1241
     73  CA        -1.7050   33.4080   -2.2040 C.3   128  TRP128      0.1605
     74  C         -2.2780   32.2360   -1.4470 C.2   128  TRP128      0.2264
     75  O         -1.5170   31.3170   -1.1460 O.2   128  TRP128     -0.2867
     76  CB        -0.6600   34.0920   -1.2900 C.3   128  TRP128      0.0550
     77  CG        -1.1730   34.9150   -0.1050 C.ar  128  TRP128      0.0003
     78  CD1       -1.6660   34.3530    1.0520 C.ar  128  TRP128      0.0946
     79  CD2       -1.2510   36.2790   -0.0830 C.ar  128  TRP128      0.0152
     80  NE1       -2.0740   35.3640    1.8060 N.ar  128  TRP128     -0.2442
     81  CE2       -1.8450   36.5150    1.1520 C.ar  128  TRP128      0.0810
     82  CE3       -0.9160   37.3020   -0.9360 C.ar  128  TRP128      0.0012
     83  CZ2       -2.1180   37.8040    1.5460 C.ar  128  TRP128      0.0191
     84  CZ3       -1.1890   38.5950   -0.5400 C.ar  128  TRP128      0.0001
     85  CH2       -1.7860   38.8430    0.6870 C.ar  128  TRP128      0.0015
@<TRIPOS>BOND
     1    72    73    1
     2    73    74    1
     3    73    76    1
     4    74    75    2
     5    76    77    1
     6    66    67    2
     7    66    65    1
     8    82    84   ar
     9    82    79   ar
    10    84    85   ar
    11    77    79   ar
    12    77    78   ar
    13    79    81   ar
    14    65    68    1
    15    65    64    1
    16    52    51    1
    17    68    69    1
    18    85    83   ar
    19    78    80   ar
    20    81    83   ar
    21    81    80   ar
    22    51    49   ar
    23    51    50   ar
    24    69    71   am
    25    69    70    2
    26    49    47   ar
    27    50    48   ar
    28    63    61   ar
    29    63    62   ar
    30    61    59   ar
    31    47    46   ar
    32    48    46   ar
    33    62    60   ar
    34    59    58   ar
    35    46    45    1
    36    56    55    1
    37    55    54    1
    38    60    58   ar
    39    58    57    1
    40    28    26    1
    41    27    26    1
    42    40    39    2
    43    38    39    1
    44    38    37    1
    45    54    57    1
    46    54    53    1
    47    39    41   am
    48    45    42    1
    49    37    35   am
    50    41    42    1
    51    26    23    1
    52    42    43    1
    53    32    31    2
    54    20    19   ar
    55    35    34    1
    56    35    36    2
    57    34    33    1
    58    23    22    1
    59    23    24    1
    60    43    44    2
    61    31    33   am
    62    31    30    1
    63    19    21   ar
    64    19    18    1
    65    24    29   am
    66    24    25    2
    67    29    30    1
    68     7     6    2
    69    13    10    1
    70     8     6   am
    71     6     5    1
    72    17    16    2
    73    18    15    1
    74    10     9    1
    75    10    11    1
    76    15    16    1
    77    15    14    1
    78     5     2    1
    79    14    11   am
    80    11    12    2
    81     2     1    1
    82     2     3    1
    83     3     4    2
