@<TRIPOS>MOLECULE
tmp/1locG00.pdb
 99 97 0 0 0
SMALL
GASTEIGER

@<TRIPOS>ATOM
      1  N         51.2560   -3.2880    5.0020 N.3    39  ASN39      -0.1225
      2  CA        50.5410   -4.5610    4.9710 C.3    39  ASN39       0.1785
      3  C         49.5370   -4.6830    6.1130 C.2    39  ASN39       0.2598
      4  O         49.5540   -5.6300    6.8920 O.2    39  ASN39      -0.2718
      5  CB        51.5590   -5.7140    4.9800 C.3    39  ASN39       0.1169
      6  CG        52.3230   -5.8320    3.6620 C.2    39  ASN39       0.2627
      7  OD1       53.5540   -5.7840    3.6640 O.2    39  ASN39      -0.2716
      8  ND2       51.7490   -5.9520    2.4680 N.am   39  ASN39      -0.0877
      9  N         48.6500   -3.6790    6.2580 N.am   40  THR40      -0.1939
     10  CA        47.6420   -3.6820    7.3150 C.3    40  THR40       0.2028
     11  C         46.2420   -3.5680    6.6820 C.2    40  THR40       0.2642
     12  O         46.0830   -3.1400    5.5240 O.2    40  THR40      -0.2714
     13  CB        47.9080   -2.5150    8.3630 C.3    40  THR40       0.1808
     14  OG1       47.5610   -1.2050    7.9150 O.3    40  THR40      -0.2208
     15  CG2       49.3980   -2.4430    8.6240 C.3    40  THR40       0.0379
     16  N         45.2510   -4.0800    7.4420 N.am   41  VAL41      -0.1977
     17  CA        43.8370   -4.1350    7.0650 C.3    41  VAL41       0.1596
     18  C         43.0430   -3.5590    8.2030 C.2    41  VAL41       0.2287
     19  O         43.2770   -4.0040    9.3210 O.2    41  VAL41      -0.2864
     20  CB        43.1760   -5.5230    6.9460 C.3    41  VAL41       0.0276
     21  CG1       41.7910   -5.3320    6.2490 C.3    41  VAL41       0.0022
     22  CG2       44.1170   -6.5130    6.3000 C.3    41  VAL41       0.0022
     23  N         49.0800    3.8630   -1.2920 N.3    80  ALA80      -0.1231
     24  CA        48.3460    2.6360   -1.5360 C.3    80  ALA80       0.1694
     25  C         47.5580    2.3020   -0.2510 C.2    80  ALA80       0.2592
     26  O         47.8180    2.9050    0.8040 O.2    80  ALA80      -0.2718
     27  CB        49.2750    1.4710   -1.8330 C.3    80  ALA80       0.0304
     28  N         46.5530    1.4340   -0.2220 N.am   81  ASP81      -0.1974
     29  CA        45.8700    0.9960   -1.4120 C.3    81  ASP81       0.1709
     30  C         44.5440    1.6440   -1.7280 C.2    81  ASP81       0.2293
     31  O         44.0840    1.6140   -2.8900 O.2    81  ASP81      -0.2864
     32  CB        45.7300   -0.4930   -1.2660 C.3    81  ASP81       0.1436
     33  CG        46.7980   -1.2290   -2.0330 C.2    81  ASP81       0.3671
     34  OD1       46.7470   -1.2480   -3.2640 O.co2  81  ASP81      -0.2456
     35  OD2       47.6540   -1.8080   -1.3950 O.co2  81  ASP81      -0.2456
     36  N         40.9400  -10.6300    1.2180 N.3    96  THR96      -0.1203
     37  CA        42.3660  -10.3420    0.9280 C.3    96  THR96       0.1994
     38  C         42.8620   -8.8580    1.0240 C.2    96  THR96       0.2618
     39  O         42.1740   -7.8830    0.6720 O.2    96  THR96      -0.2717
     40  CB        42.6230  -10.9650   -0.4640 C.3    96  THR96       0.1784
     41  OG1       42.1440  -12.3140   -0.4280 O.3    96  THR96      -0.2211
     42  CG2       44.1180  -11.0330   -0.8010 C.3    96  THR96       0.0376
     43  N         44.0610   -8.6700    1.5840 N.am   97  GLY97      -0.1942
     44  CA        44.6640   -7.3750    1.7900 C.3    97  GLY97       0.2014
     45  C         45.2880   -6.8190    0.5130 C.2    97  GLY97       0.2639
     46  O         45.0770   -7.2720   -0.6160 O.2    97  GLY97      -0.2714
     47  N         46.1070   -5.8150    0.7170 N.am   98  GLY98      -0.1939
     48  CA        46.7730   -5.1380   -0.3960 C.3    98  GLY98       0.2014
     49  C         45.7740   -4.5010   -1.3640 C.2    98  GLY98       0.2639
     50  O         44.7960   -3.8510   -0.9590 O.2    98  GLY98      -0.2714
     51  N         45.9420   -4.7920   -2.6520 N.am   99  GLY99      -0.1939
     52  CA        45.1090   -4.2330   -3.6990 C.3    99  GLY99       0.2014
     53  C         43.7190   -4.7890   -3.7620 C.2    99  GLY99       0.2638
     54  O         42.9140   -4.2830   -4.5470 O.2    99  GLY99      -0.2714
     55  N         43.4130   -5.8150   -2.9840 N.am  100  TYR100     -0.1973
     56  CA        42.0880   -6.4120   -2.9400 C.3   100  TYR100      0.1639
     57  C         41.1940   -5.6640   -1.9250 C.2   100  TYR100      0.2290
     58  O         39.9970   -5.9600   -1.7320 O.2   100  TYR100     -0.2864
     59  CB        42.3000   -7.8990   -2.5810 C.3   100  TYR100      0.0560
     60  CG        42.8150   -8.7430   -3.7400 C.ar  100  TYR100     -0.0198
     61  CD1       41.9030   -9.1020   -4.7120 C.ar  100  TYR100     -0.0009
     62  CD2       44.1530   -9.1100   -3.8660 C.ar  100  TYR100     -0.0009
     63  CE1       42.3130   -9.8180   -5.8250 C.ar  100  TYR100      0.0417
     64  CE2       44.5680   -9.8430   -4.9750 C.ar  100  TYR100      0.0417
     65  CZ        43.6370  -10.1900   -5.9470 C.ar  100  TYR100      0.1957
     66  OH        43.9700  -10.9460   -7.0640 O.3   100  TYR100     -0.2866
     67  N         46.0780    3.1420   -5.9830 N.3   123  PHE123     -0.1241
     68  CA        47.2600    2.4330   -6.4970 C.3   123  PHE123      0.1605
     69  C         46.7670    1.5150   -7.6110 C.2   123  PHE123      0.2264
     70  O         45.8130    0.6820   -7.5040 O.2   123  PHE123     -0.2867
     71  CB        47.9320    1.6130   -5.3580 C.3   123  PHE123      0.0534
     72  CG        49.2010    0.8420   -5.7460 C.ar  123  PHE123     -0.0203
     73  CD1       49.1170   -0.3810   -6.4160 C.ar  123  PHE123     -0.0042
     74  CD2       50.4660    1.3890   -5.4950 C.ar  123  PHE123     -0.0042
     75  CE1       50.2760   -1.0270   -6.8360 C.ar  123  PHE123     -0.0003
     76  CE2       51.6080    0.7190   -5.9250 C.ar  123  PHE123     -0.0003
     77  CZ        51.5230   -0.4800   -6.5930 C.ar  123  PHE123     -0.0000
     78  N         47.1100   -1.4910  -10.1350 N.3   125  ASN125     -0.1240
     79  CA        47.5050   -2.8970  -10.0970 C.3   125  ASN125      0.1653
     80  C         47.1600   -3.1660  -11.5370 C.2   125  ASN125      0.2266
     81  O         46.0020   -3.0080  -11.9200 O.2   125  ASN125     -0.2867
     82  CB        46.6200   -3.7690   -9.1700 C.3   125  ASN125      0.1155
     83  CG        46.7990   -3.4340   -7.6880 C.2   125  ASN125      0.2627
     84  OD1       46.0280   -2.6010   -7.1500 O.2   125  ASN125     -0.2716
     85  ND2       47.7950   -3.8870   -6.9650 N.am  125  ASN125     -0.0877
     86  N         44.0300   -5.3890  -13.1870 N.3   128  TRP128     -0.1241
     87  CA        42.6110   -5.0920  -13.3010 C.3   128  TRP128      0.1605
     88  C         42.2640   -3.6160  -13.2770 C.2   128  TRP128      0.2264
     89  O         41.1190   -3.2550  -13.5970 O.2   128  TRP128     -0.2867
     90  CB        41.8130   -5.8030  -12.1710 C.3   128  TRP128      0.0550
     91  CG        42.2360   -5.4520  -10.7530 C.ar  128  TRP128      0.0003
     92  CD1       41.9630   -4.2470  -10.1660 C.ar  128  TRP128      0.0946
     93  CD2       42.9740   -6.2540   -9.9370 C.ar  128  TRP128      0.0152
     94  NE1       42.5420   -4.2700   -8.9900 N.ar  128  TRP128     -0.2442
     95  CE2       43.1470   -5.4420   -8.8200 C.ar  128  TRP128      0.0810
     96  CE3       43.5190   -7.5210   -9.9780 C.ar  128  TRP128      0.0012
     97  CZ2       43.8610   -5.8670   -7.7290 C.ar  128  TRP128      0.0191
     98  CZ3       44.2430   -7.9500   -8.8770 C.ar  128  TRP128      0.0001
     99  CH2       44.4070   -7.1320   -7.7800 C.ar  128  TRP128      0.0015
@<TRIPOS>BOND
     1    89    88    2
     2    87    88    1
     3    87    86    1
     4    87    90    1
     5    90    91    1
     6    81    80    2
     7    80    79    1
     8    91    92   ar
     9    91    93   ar
    10    92    94   ar
    11    78    79    1
    12    79    82    1
    13    96    93   ar
    14    96    98   ar
    15    93    95   ar
    16    82    83    1
    17    94    95   ar
    18    98    99   ar
    19    95    97   ar
    20    99    97   ar
    21    83    84    2
    22    83    85   am
    23    69    70    2
    24    69    68    1
    25    66    65    1
    26    75    77   ar
    27    75    73   ar
    28    77    76   ar
    29    68    67    1
    30    68    71    1
    31    73    72   ar
    32    65    63   ar
    33    65    64   ar
    34    76    74   ar
    35    63    61   ar
    36    72    74   ar
    37    72    71    1
    38    64    62   ar
    39    61    60   ar
    40    54    53    2
    41    62    60   ar
    42    53    52    1
    43    53    55   am
    44    60    59    1
    45    52    51    1
    46    34    33   ar
    47    55    56    1
    48    56    59    1
    49    56    57    1
    50    31    30    2
    51    51    49   am
    52    33    35   ar
    53    33    32    1
    54    57    58    2
    55    27    24    1
    56    30    29    1
    57    24    23    1
    58    24    25    1
    59    29    32    1
    60    29    28    1
    61    49    50    2
    62    49    48    1
    63    42    40    1
    64    46    45    2
    65    40    41    1
    66    40    37    1
    67    48    47    1
    68    25    28   am
    69    25    26    2
    70    45    47   am
    71    45    44    1
    72    39    38    2
    73    37    38    1
    74    37    36    1
    75    38    43   am
    76    43    44    1
    77     8     6   am
    78     6     7    2
    79     6     5    1
    80     2     5    1
    81     2     1    1
    82     2     3    1
    83    12    11    2
    84     3     9   am
    85     3     4    2
    86    21    20    1
    87     9    10    1
    88    22    20    1
    89    11    10    1
    90    11    16   am
    91    20    17    1
    92    17    16    1
    93    17    18    1
    94    10    13    1
    95    14    13    1
    96    18    19    2
    97    13    15    1
