@<TRIPOS>MOLECULE
tmp/1lodC00.pdb
 85 83 0 0 0
SMALL
GASTEIGER

@<TRIPOS>ATOM
      1  N         -9.3910   45.9730   11.5200 N.3    39  ASN39      -0.1240
      2  CA        -8.0840   46.4920   11.1980 C.3    39  ASN39       0.1653
      3  C         -7.1640   46.6690   12.3840 C.2    39  ASN39       0.2266
      4  O         -6.6330   47.7670   12.5470 O.2    39  ASN39      -0.2867
      5  CB        -8.2460   47.8370   10.4630 C.3    39  ASN39       0.1155
      6  CG        -8.9490   47.7460    9.1060 C.2    39  ASN39       0.2627
      7  OD1       -8.4070   47.2090    8.1310 O.2    39  ASN39      -0.2716
      8  ND2      -10.1690   48.2660    8.9390 N.am   39  ASN39      -0.0877
      9  N        -11.8240   36.9090   10.5620 N.3    80  ALA80      -0.1231
     10  CA       -10.5340   37.2630    9.9760 C.3    80  ALA80       0.1694
     11  C         -9.6550   37.8850   11.0780 C.2    80  ALA80       0.2592
     12  O        -10.2290   38.2660   12.1220 O.2    80  ALA80      -0.2718
     13  CB       -10.7490   38.2860    8.8600 C.3    80  ALA80       0.0304
     14  N         -8.3130   38.0060   10.9770 N.am   81  ASP81      -0.1974
     15  CA        -7.5000   37.3410    9.9470 C.3    81  ASP81       0.1709
     16  C         -6.8330   36.0490   10.2990 C.2    81  ASP81       0.2293
     17  O         -6.6160   35.1820    9.4380 O.2    81  ASP81      -0.2864
     18  CB        -6.4680   38.3310    9.4800 C.3    81  ASP81       0.1436
     19  CG        -6.9840   39.0360    8.2560 C.2    81  ASP81       0.3671
     20  OD1       -6.9940   38.4100    7.2030 O.co2  81  ASP81      -0.2456
     21  OD2       -7.3910   40.1880    8.3310 O.co2  81  ASP81      -0.2456
     22  N          3.0270   44.1230    8.1450 N.3    96  THR96      -0.1203
     23  CA         1.6800   44.4900    7.7110 C.3    96  THR96       0.1994
     24  C          0.5630   43.7230    8.3590 C.2    96  THR96       0.2618
     25  O          0.7040   42.5550    8.7160 O.2    96  THR96      -0.2717
     26  CB         1.5980   44.3660    6.1820 C.3    96  THR96       0.1784
     27  OG1        2.6630   45.2070    5.7510 O.3    96  THR96      -0.2211
     28  CG2        0.3100   44.8850    5.5110 C.3    96  THR96       0.0376
     29  N         -0.5480   44.4340    8.5430 N.am   97  GLY97      -0.1942
     30  CA        -1.7230   43.8780    9.1910 C.3    97  GLY97       0.2014
     31  C         -2.5480   43.0860    8.2050 C.2    97  GLY97       0.2639
     32  O         -2.0260   42.5750    7.2240 O.2    97  GLY97      -0.2714
     33  N         -3.8340   42.9490    8.4630 N.am   98  GLY98      -0.1939
     34  CA        -4.6870   42.1890    7.5790 C.3    98  GLY98       0.2014
     35  C         -4.1650   40.7770    7.3290 C.2    98  GLY98       0.2639
     36  O         -3.5970   40.1480    8.2330 O.2    98  GLY98      -0.2714
     37  N         -4.2790   40.2960    6.1030 N.am   99  GLY99      -0.1939
     38  CA        -3.8720   38.9660    5.7230 C.3    99  GLY99       0.2014
     39  C         -2.4090   38.6700    5.8970 C.2    99  GLY99       0.2638
     40  O         -2.0870   37.4870    5.7130 O.2    99  GLY99      -0.2714
     41  N         -1.5230   39.6160    6.2130 N.am  100  TYR100     -0.1973
     42  CA        -0.0950   39.3360    6.4810 C.3   100  TYR100      0.1639
     43  C          0.2140   39.0400    7.9440 C.2   100  TYR100      0.2290
     44  O          1.3770   38.8610    8.3530 O.2   100  TYR100     -0.2864
     45  CB         0.8200   40.4830    6.0990 C.3   100  TYR100      0.0560
     46  CG         0.7980   40.7690    4.6240 C.ar  100  TYR100     -0.0198
     47  CD1        1.5750   40.0590    3.7560 C.ar  100  TYR100     -0.0009
     48  CD2       -0.0400   41.7700    4.1810 C.ar  100  TYR100     -0.0009
     49  CE1        1.4980   40.3730    2.4220 C.ar  100  TYR100      0.0417
     50  CE2       -0.1210   42.0920    2.8520 C.ar  100  TYR100      0.0417
     51  CZ         0.6560   41.3820    1.9760 C.ar  100  TYR100      0.1957
     52  OH         0.5780   41.6860    0.6260 O.3   100  TYR100     -0.2866
     53  N         -8.9940   33.5170    7.1920 N.3   123  PHE123     -0.1241
     54  CA        -9.5080   34.1770    6.0210 C.3   123  PHE123      0.1605
     55  C         -8.6450   33.9210    4.7790 C.2   123  PHE123      0.2264
     56  O         -7.3840   34.0770    4.7640 O.2   123  PHE123     -0.2867
     57  CB        -9.5780   35.6320    6.3580 C.3   123  PHE123      0.0534
     58  CG       -10.1840   36.4760    5.2600 C.ar  123  PHE123     -0.0203
     59  CD1       -9.3660   37.0170    4.2780 C.ar  123  PHE123     -0.0042
     60  CD2      -11.5410   36.6950    5.2770 C.ar  123  PHE123     -0.0042
     61  CE1       -9.9140   37.7930    3.2990 C.ar  123  PHE123     -0.0003
     62  CE2      -12.0860   37.4740    4.2910 C.ar  123  PHE123     -0.0003
     63  CZ       -11.2740   38.0150    3.3120 C.ar  123  PHE123     -0.0000
     64  N         -7.1350   34.7050    1.3030 N.3   125  ASN125     -0.1240
     65  CA        -6.6590   35.8790    0.5670 C.3   125  ASN125      0.1653
     66  C         -6.3260   35.2060   -0.7620 C.2   125  ASN125      0.2266
     67  O         -5.3260   34.4730   -0.8070 O.2   125  ASN125     -0.2867
     68  CB        -5.3820   36.4620    1.2030 C.3   125  ASN125      0.1155
     69  CG        -5.6220   37.1290    2.5490 C.2   125  ASN125      0.2627
     70  OD1       -5.6090   36.4510    3.5940 O.2   125  ASN125     -0.2716
     71  ND2       -5.8690   38.4160    2.6190 N.am  125  ASN125     -0.0877
     72  N         -2.5680   34.4390   -2.1750 N.3   128  TRP128     -0.1241
     73  CA        -1.4500   33.6080   -1.7330 C.3   128  TRP128      0.1605
     74  C         -1.8540   32.3840   -0.9530 C.2   128  TRP128      0.2264
     75  O         -1.0510   31.4850   -0.7220 O.2   128  TRP128     -0.2867
     76  CB        -0.4560   34.4440   -0.8990 C.3   128  TRP128      0.0550
     77  CG        -1.0050   35.1970    0.3170 C.ar  128  TRP128      0.0003
     78  CD1       -1.3910   34.5280    1.4580 C.ar  128  TRP128      0.0946
     79  CD2       -1.2070   36.5410    0.4180 C.ar  128  TRP128      0.0152
     80  NE1       -1.8490   35.4400    2.2820 N.ar  128  TRP128     -0.2442
     81  CE2       -1.7540   36.6450    1.6990 C.ar  128  TRP128      0.0810
     82  CE3       -1.0250   37.6770   -0.3430 C.ar  128  TRP128      0.0012
     83  CZ2       -2.1280   37.8520    2.2540 C.ar  128  TRP128      0.0191
     84  CZ3       -1.4030   38.8900    0.2180 C.ar  128  TRP128      0.0001
     85  CH2       -1.9480   38.9840    1.4970 C.ar  128  TRP128      0.0015
@<TRIPOS>BOND
     1    72    73    1
     2    73    74    1
     3    73    76    1
     4    74    75    2
     5    76    77    1
     6    67    66    2
     7    66    65    1
     8    82    84   ar
     9    82    79   ar
    10    84    85   ar
    11    77    79   ar
    12    77    78   ar
    13    79    81   ar
    14    65    68    1
    15    65    64    1
    16    52    51    1
    17    68    69    1
    18    78    80   ar
    19    85    83   ar
    20    81    83   ar
    21    81    80   ar
    22    51    49   ar
    23    51    50   ar
    24    49    47   ar
    25    69    71   am
    26    69    70    2
    27    50    48   ar
    28    61    63   ar
    29    61    59   ar
    30    63    62   ar
    31    47    46   ar
    32    48    46   ar
    33    59    58   ar
    34    62    60   ar
    35    46    45    1
    36    56    55    2
    37    55    54    1
    38    58    60   ar
    39    58    57    1
    40    28    26    1
    41    40    39    2
    42    38    39    1
    43    38    37    1
    44    27    26    1
    45    39    41   am
    46    54    57    1
    47    54    53    1
    48    45    42    1
    49    37    35   am
    50    26    23    1
    51    41    42    1
    52    42    43    1
    53    20    19   ar
    54    32    31    2
    55    35    34    1
    56    35    36    2
    57    34    33    1
    58    23    22    1
    59    23    24    1
    60    43    44    2
    61     7     6    2
    62    31    33   am
    63    31    30    1
    64    19    21   ar
    65    19    18    1
    66    24    29   am
    67    24    25    2
    68    29    30    1
    69    13    10    1
    70     8     6   am
    71     6     5    1
    72    17    16    2
    73    18    15    1
    74    15    16    1
    75    15    14    1
    76    10     9    1
    77    10    11    1
    78     5     2    1
    79    14    11   am
    80    11    12    2
    81     2     1    1
    82     2     3    1
    83     3     4    2
