@<TRIPOS>MOLECULE
tmp/1lofA00.pdb
 142 143 0 0 0
SMALL
GASTEIGER

@<TRIPOS>ATOM
      1  N         32.4990   19.4360    6.2520 N.3    38  ARG38      -0.1231
      2  CA        31.5560   19.4740    5.1640 C.3    38  ARG38       0.1694
      3  C         31.2240   18.0790    4.7460 C.2    38  ARG38       0.2592
      4  O         31.9930   17.1600    4.9220 O.2    38  ARG38      -0.2718
      5  CB        32.0990   20.2520    3.9870 C.3    38  ARG38       0.0321
      6  CG        33.3140   19.7810    3.2550 C.3    38  ARG38       0.0489
      7  CD        33.4720   20.7230    2.0560 C.3    38  ARG38       0.2205
      8  NE        33.7110   22.1090    2.4650 N.pl3  38  ARG38      -0.0865
      9  CZ        33.5920   23.1560    1.6360 C.cat  38  ARG38       0.5346
     10  NH1       33.2120   22.9990    0.3670 N.pl3  38  ARG38       0.1354
     11  NH2       33.8240   24.3850    2.0990 N.pl3  38  ARG38       0.1354
     12  N         30.0190   17.9660    4.2580 N.am   39  ASN39      -0.1974
     13  CA        29.4030   16.7900    3.7230 C.3    39  ASN39       0.1688
     14  C         29.3240   15.5490    4.5910 C.2    39  ASN39       0.2292
     15  O         29.6700   14.4710    4.0970 O.2    39  ASN39      -0.2864
     16  CB        30.0870   16.5230    2.3860 C.3    39  ASN39       0.1181
     17  CG        29.2510   15.6760    1.4130 C.2    39  ASN39       0.2629
     18  OD1       28.1090   15.9580    0.9840 O.2    39  ASN39      -0.2716
     19  ND2       29.8360   14.5300    1.0680 N.am   39  ASN39      -0.0877
     20  N         26.3840   33.0710    7.9430 N.3    77  TYR77      -0.1227
     21  CA        26.0090   32.9930    6.5420 C.3    77  TYR77       0.1736
     22  C         26.3650   31.6390    5.9190 C.2    77  TYR77       0.2595
     23  O         25.6310   31.0990    5.0710 O.2    77  TYR77      -0.2718
     24  CB        26.6920   34.1620    5.8270 C.3    77  TYR77       0.0548
     25  CG        26.1380   35.5070    6.3220 C.ar   77  TYR77      -0.0200
     26  CD1       24.8440   35.8900    5.9720 C.ar   77  TYR77      -0.0009
     27  CD2       26.9170   36.3380    7.1280 C.ar   77  TYR77      -0.0009
     28  CE1       24.3290   37.0970    6.4170 C.ar   77  TYR77       0.0417
     29  CE2       26.4030   37.5480    7.5760 C.ar   77  TYR77       0.0417
     30  CZ        25.1130   37.9180    7.2130 C.ar   77  TYR77       0.1957
     31  OH        24.5840   39.1270    7.6390 O.3    77  TYR77      -0.2866
     32  N         27.4930   31.0730    6.3660 N.am   78  ASN78      -0.1960
     33  CA        27.8950   29.7660    5.9230 C.3    78  ASN78       0.1819
     34  C         27.4430   28.7650    6.9560 C.2    78  ASN78       0.2621
     35  O         28.2280   28.3630    7.8100 O.2    78  ASN78      -0.2715
     36  CB        29.3810   29.6640    5.7730 C.3    78  ASN78       0.1195
     37  CG        29.9390   30.4900    4.6370 C.2    78  ASN78       0.2630
     38  OD1       29.4140   31.5380    4.2750 O.2    78  ASN78      -0.2716
     39  ND2       31.0650   30.1190    4.0440 N.am   78  ASN78      -0.0877
     40  N         26.1640   28.3680    6.8720 N.am   79  VAL79      -0.1963
     41  CA        25.4780   27.4350    7.7790 C.3    79  VAL79       0.1727
     42  C         24.7690   26.4900    6.7980 C.2    79  VAL79       0.2616
     43  O         24.1920   26.9660    5.8020 O.2    79  VAL79      -0.2715
     44  CB        24.3550   28.1390    8.6590 C.3    79  VAL79       0.0290
     45  CG1       23.8440   27.2350    9.7330 C.3    79  VAL79       0.0023
     46  CG2       24.8890   29.3780    9.2990 C.3    79  VAL79       0.0023
     47  N         24.7530   25.1770    7.0520 N.am   80  ALA80      -0.1963
     48  CA        23.9890   24.2040    6.2730 C.3    80  ALA80       0.1728
     49  C         24.2020   22.8470    6.9060 C.2    80  ALA80       0.2616
     50  O         25.1960   22.6960    7.6030 O.2    80  ALA80      -0.2715
     51  CB        24.4690   24.1120    4.8160 C.3    80  ALA80       0.0334
     52  N         23.3940   21.8070    6.7630 N.am   81  ASP81      -0.1971
     53  CA        22.1150   21.9280    6.0670 C.3    81  ASP81       0.1709
     54  C         20.8400   22.0720    6.8890 C.2    81  ASP81       0.2293
     55  O         19.8470   22.6950    6.4380 O.2    81  ASP81      -0.2864
     56  CB        22.0040   20.7190    5.1350 C.3    81  ASP81       0.1436
     57  CG        22.5580   21.0490    3.7720 C.2    81  ASP81       0.3671
     58  OD1       21.8520   21.7860    3.0800 O.co2  81  ASP81      -0.2456
     59  OD2       23.6360   20.5820    3.4110 O.co2  81  ASP81      -0.2456
     60  N         19.6720   10.3380    1.5500 N.3    96  THR96      -0.1203
     61  CA        20.5800   11.3100    0.9550 C.3    96  THR96       0.1994
     62  C         20.8920   12.4850    1.9140 C.2    96  THR96       0.2618
     63  O         20.0410   13.0620    2.6120 O.2    96  THR96      -0.2717
     64  CB        19.9440   11.8540   -0.3710 C.3    96  THR96       0.1784
     65  OG1       19.6810   10.7640   -1.2600 O.3    96  THR96      -0.2211
     66  CG2       20.8760   12.7750   -1.1130 C.3    96  THR96       0.0376
     67  N         22.1780   12.7820    1.9540 N.am   97  GLY97      -0.1942
     68  CA        22.6910   13.8710    2.7140 C.3    97  GLY97       0.2014
     69  C         22.4340   15.2120    2.0390 C.2    97  GLY97       0.2639
     70  O         21.4560   15.3880    1.2970 O.2    97  GLY97      -0.2714
     71  N         23.3040   16.1810    2.3640 N.am   98  GLY98      -0.1939
     72  CA        23.2450   17.5420    1.8670 C.3    98  GLY98       0.2014
     73  C         21.9100   18.0940    2.2730 C.2    98  GLY98       0.2639
     74  O         21.3770   17.8470    3.3640 O.2    98  GLY98      -0.2714
     75  N         21.2590   18.7050    1.3140 N.am   99  GLY99      -0.1939
     76  CA        19.9860   19.3500    1.5470 C.3    99  GLY99       0.2014
     77  C         18.7770   18.4570    1.7940 C.2    99  GLY99       0.2638
     78  O         17.6870   19.0370    2.0680 O.2    99  GLY99      -0.2714
     79  N         18.9820   17.1300    1.5980 N.am  100  TYR100     -0.1973
     80  CA        17.9820   16.0730    1.8260 C.3   100  TYR100      0.1639
     81  C         17.9180   15.5720    3.2690 C.2   100  TYR100      0.2290
     82  O         17.1360   14.6560    3.5950 O.2   100  TYR100     -0.2864
     83  CB        18.2470   14.8630    0.9420 C.3   100  TYR100      0.0560
     84  CG        17.9360   15.1070   -0.5100 C.ar  100  TYR100     -0.0198
     85  CD1       16.6270   15.0860   -0.9060 C.ar  100  TYR100     -0.0009
     86  CD2       18.9320   15.3690   -1.4150 C.ar  100  TYR100     -0.0009
     87  CE1       16.2890   15.3390   -2.2100 C.ar  100  TYR100      0.0417
     88  CE2       18.6130   15.6170   -2.7300 C.ar  100  TYR100      0.0417
     89  CZ        17.2880   15.6040   -3.1160 C.ar  100  TYR100      0.1957
     90  OH        16.9340   15.8640   -4.4270 O.3   100  TYR100     -0.2866
     91  N         19.5260   25.9420    4.9980 N.3   123  PHE123     -0.1227
     92  CA        20.0660   26.1640    3.6910 C.3   123  PHE123      0.1736
     93  C         18.9820   25.8850    2.6510 C.2   123  PHE123      0.2595
     94  O         18.3190   24.7630    2.5360 O.2   123  PHE123     -0.2718
     95  CB        21.2470   25.2450    3.5340 C.3   123  PHE123      0.0547
     96  CG        22.0560   25.5400    2.2800 C.ar  123  PHE123     -0.0202
     97  CD1       23.0660   26.4750    2.3390 C.ar  123  PHE123     -0.0042
     98  CD2       21.8080   24.8660    1.1020 C.ar  123  PHE123     -0.0042
     99  CE1       23.8400   26.7380    1.2500 C.ar  123  PHE123     -0.0003
    100  CE2       22.5960   25.1430    0.0020 C.ar  123  PHE123     -0.0003
    101  CZ        23.6130   26.0720    0.0780 C.ar  123  PHE123     -0.0000
    102  N         18.9830   26.9950    1.9120 N.am  124  TYR124     -0.1962
    103  CA        18.1420   27.2540    0.7610 C.3   124  TYR124      0.1771
    104  C         18.5770   26.4630   -0.4450 C.2   124  TYR124      0.2620
    105  O         19.5610   26.7480   -1.0940 O.2   124  TYR124     -0.2715
    106  CB        18.1700   28.7250    0.3810 C.3   124  TYR124      0.0574
    107  CG        17.2570   29.0760   -0.7880 C.ar  124  TYR124     -0.0198
    108  CD1       16.0420   28.4340   -0.9680 C.ar  124  TYR124     -0.0009
    109  CD2       17.6620   30.0080   -1.7100 C.ar  124  TYR124     -0.0009
    110  CE1       15.2320   28.6970   -2.0490 C.ar  124  TYR124      0.0417
    111  CE2       16.8460   30.2790   -2.8040 C.ar  124  TYR124      0.0417
    112  CZ        15.6420   29.6230   -2.9700 C.ar  124  TYR124      0.1957
    113  OH        14.8820   29.8440   -4.1030 O.3   124  TYR124     -0.2866
    114  N         17.7650   25.4830   -0.7850 N.am  125  ASN125     -0.1958
    115  CA        18.0500   24.6120   -1.9040 C.3   125  ASN125      0.1819
    116  C         16.9480   25.0290   -2.8480 C.2   125  ASN125      0.2621
    117  O         15.7740   24.6880   -2.6390 O.2   125  ASN125     -0.2715
    118  CB        17.8620   23.1910   -1.5100 C.3   125  ASN125      0.1195
    119  CG        18.8610   22.7250   -0.4710 C.2   125  ASN125      0.2630
    120  OD1       18.6670   22.8820    0.7800 O.2   125  ASN125     -0.2716
    121  ND2       19.9140   22.1080   -0.9660 N.am  125  ASN125     -0.0877
    122  N         17.3790   25.7740   -3.8600 N.am  126  THR126     -0.1951
    123  CA        16.5280   26.4460   -4.8470 C.3   126  THR126      0.1897
    124  C         15.5450   25.5550   -5.5360 C.2   126  THR126      0.2313
    125  O         14.4480   26.0060   -5.8350 O.2   126  THR126     -0.2863
    126  CB        17.4260   27.1310   -5.8970 C.3   126  THR126      0.1794
    127  OG1       18.2920   26.1200   -6.4490 O.3   126  THR126     -0.2208
    128  CG2       18.2760   28.2380   -5.2650 C.3   126  THR126      0.0378
    129  N         13.8040   23.1680   -4.0800 N.3   128  TRP128     -0.1241
    130  CA        12.5810   22.8640   -3.2980 C.3   128  TRP128      0.1605
    131  C         12.2800   23.7110   -2.0700 C.2   128  TRP128      0.2264
    132  O         11.3120   23.4330   -1.3520 O.2   128  TRP128     -0.2867
    133  CB        12.5870   21.4030   -2.8200 C.3   128  TRP128      0.0550
    134  CG        13.8510   21.0450   -2.0390 C.ar  128  TRP128      0.0003
    135  CD1       14.0000   21.3980   -0.7300 C.ar  128  TRP128      0.0946
    136  CD2       14.9370   20.3700   -2.5470 C.ar  128  TRP128      0.0152
    137  NE1       15.1710   20.9650   -0.3880 N.ar  128  TRP128     -0.2442
    138  CE2       15.7590   20.3520   -1.4330 C.ar  128  TRP128      0.0810
    139  CE3       15.3570   19.8040   -3.7440 C.ar  128  TRP128      0.0012
    140  CZ2       17.0100   19.7700   -1.4820 C.ar  128  TRP128      0.0191
    141  CZ3       16.6020   19.2080   -3.7820 C.ar  128  TRP128      0.0001
    142  CH2       17.4290   19.2120   -2.6670 C.ar  128  TRP128      0.0015
@<TRIPOS>BOND
     1   127   126    1
     2   126   128    1
     3   126   123    1
     4   125   124    2
     5   124   123    1
     6   123   122    1
     7    90    89    1
     8   113   112    1
     9   129   130    1
    10   122   116   am
    11   141   139   ar
    12   141   142   ar
    13   139   136   ar
    14   130   133    1
    15   130   131    1
    16    89    88   ar
    17    89    87   ar
    18   112   111   ar
    19   112   110   ar
    20   116   117    2
    21   116   115    1
    22   133   134    1
    23   111   109   ar
    24    88    86   ar
    25   142   140   ar
    26   136   134   ar
    27   136   138   ar
    28    87    85   ar
    29   131   132    2
    30   110   108   ar
    31   134   135   ar
    32   115   118    1
    33   115   114    1
    34   109   107   ar
    35   118   119    1
    36   140   138   ar
    37   138   137   ar
    38    86    84   ar
    39    65    64    1
    40    66    64    1
    41   105   104    2
    42   108   107   ar
    43   121   119   am
    44    85    84   ar
    45   107   106    1
    46   114   104   am
    47   135   137   ar
    48    84    83    1
    49   119   120    2
    50   104   103    1
    51    64    61    1
    52   100   101   ar
    53   100    98   ar
    54   101    99   ar
    55    10     9    1
    56   106   103    1
    57   103   102    1
    58    83    80    1
    59    61    60    1
    60    61    62    1
    61    18    17    2
    62    19    17   am
    63    98    96   ar
    64    99    97   ar
    65    70    69    2
    66    75    76    1
    67    75    73   am
    68    17    16    1
    69    76    77    1
    70    79    77   am
    71    79    80    1
    72     9    11    1
    73     9     8    2
    74    77    78    2
    75    80    81    1
    76    72    73    1
    77    72    71    1
    78   102    93   am
    79    62    67   am
    80    62    63    2
    81    67    68    1
    82    69    71   am
    83    69    68    1
    84     7     8    1
    85     7     6    1
    86    73    74    2
    87    96    97   ar
    88    96    95    1
    89    16    13    1
    90    94    93    2
    91    93    92    1
    92    58    57   ar
    93     6     5    1
    94    81    82    2
    95    59    57   ar
    96    95    92    1
    97    92    91    1
    98    13    12    1
    99    13    14    1
   100    57    56    1
   101     5     2    1
   102    39    37   am
   103    15    14    2
   104    12     3   am
   105    38    37    2
   106    37    36    1
   107     3     4    2
   108     3     2    1
   109    51    48    1
   110    23    22    2
   111    56    53    1
   112     2     1    1
   113    36    33    1
   114    43    42    2
   115    24    25    1
   116    24    21    1
   117    22    32   am
   118    22    21    1
   119    33    32    1
   120    33    34    1
   121    26    25   ar
   122    26    28   ar
   123    53    52    1
   124    53    54    1
   125    48    49    1
   126    48    47    1
   127    25    27   ar
   128    28    30   ar
   129    55    54    2
   130    21    20    1
   131    52    49   am
   132    42    47   am
   133    42    41    1
   134    40    34   am
   135    40    41    1
   136    49    50    2
   137    34    35    2
   138    27    29   ar
   139    30    29   ar
   140    30    31    1
   141    41    44    1
   142    44    46    1
   143    44    45    1
