@<TRIPOS>MOLECULE
tmp/1lofC00.pdb
 96 94 0 0 0
SMALL
GASTEIGER

@<TRIPOS>ATOM
      1  N          5.7860  -30.0130   27.8620 N.3    38  ARG38      -0.1231
      2  CA         6.9650  -30.4870   28.5520 C.3    38  ARG38       0.1694
      3  C          8.2960  -29.8840   28.0400 C.2    38  ARG38       0.2592
      4  O          8.4480  -29.6150   26.8380 O.2    38  ARG38      -0.2718
      5  CB         6.8510  -31.9990   28.4080 C.3    38  ARG38       0.0321
      6  CG         7.8040  -32.7880   29.2690 C.3    38  ARG38       0.0489
      7  CD         7.4340  -34.2440   29.1560 C.3    38  ARG38       0.2205
      8  NE         6.1450  -34.4820   29.7770 N.pl3  38  ARG38      -0.0865
      9  CZ         6.0050  -35.4200   30.7200 C.cat  38  ARG38       0.5346
     10  NH1        7.0360  -36.1870   31.1270 N.pl3  38  ARG38       0.1354
     11  NH2        4.8100  -35.5930   31.2830 N.pl3  38  ARG38       0.1354
     12  N          9.2360  -29.6100   28.9510 N.am   39  ASN39      -0.1974
     13  CA        10.5610  -29.0690   28.6470 C.3    39  ASN39       0.1688
     14  C         10.8300  -27.7900   27.8060 C.2    39  ASN39       0.2292
     15  O         11.9420  -27.6600   27.2760 O.2    39  ASN39      -0.2864
     16  CB        11.3510  -30.2240   28.0560 C.3    39  ASN39       0.1181
     17  CG        12.6450  -30.4630   28.8220 C.2    39  ASN39       0.2629
     18  OD1       13.6330  -29.7340   28.6880 O.2    39  ASN39      -0.2716
     19  ND2       12.7140  -31.4900   29.6650 N.am   39  ASN39      -0.0877
     20  N          5.1420  -27.2700   37.4080 N.3    80  ALA80      -0.1231
     21  CA         6.5660  -27.0040   37.3240 C.3    80  ALA80       0.1694
     22  C          6.8070  -26.0880   36.1260 C.2    80  ALA80       0.2592
     23  O          5.8690  -26.0120   35.3230 O.2    80  ALA80      -0.2718
     24  CB         7.3930  -28.2370   37.0620 C.3    80  ALA80       0.0304
     25  N          7.8640  -25.3150   35.8950 N.am   81  ASP81      -0.1974
     26  CA         8.7860  -24.9720   36.9440 C.3    81  ASP81       0.1709
     27  C          8.6260  -23.6480   37.6810 C.2    81  ASP81       0.2293
     28  O          9.0340  -23.4960   38.8600 O.2    81  ASP81      -0.2864
     29  CB        10.0860  -25.1010   36.2940 C.3    81  ASP81       0.1436
     30  CG        10.5030  -26.5140   36.5670 C.2    81  ASP81       0.3671
     31  OD1       10.9630  -26.7780   37.6850 O.co2  81  ASP81      -0.2456
     32  OD2       10.3730  -27.3360   35.6720 O.co2  81  ASP81      -0.2456
     33  N         19.9710  -22.3690   31.4410 N.3    96  THR96      -0.1203
     34  CA        19.4340  -23.7350   31.5090 C.3    96  THR96       0.1994
     35  C         17.9600  -23.7020   31.8650 C.2    96  THR96       0.2618
     36  O         17.4780  -22.8570   32.6170 O.2    96  THR96      -0.2717
     37  CB        20.2500  -24.5150   32.5810 C.3    96  THR96       0.1784
     38  OG1       21.6190  -24.4220   32.2120 O.3    96  THR96      -0.2211
     39  CG2       19.8760  -25.9900   32.6980 C.3    96  THR96       0.0376
     40  N         17.2110  -24.5950   31.2800 N.am   97  GLY97      -0.1942
     41  CA        15.8100  -24.7370   31.5680 C.3    97  GLY97       0.2014
     42  C         15.5620  -25.5210   32.8600 C.2    97  GLY97       0.2639
     43  O         16.3480  -25.5700   33.8160 O.2    97  GLY97      -0.2714
     44  N         14.4120  -26.1890   32.8720 N.am   98  GLY98      -0.1939
     45  CA        13.8770  -26.8700   34.0510 C.3    98  GLY98       0.2014
     46  C         13.8140  -25.9460   35.2530 C.2    98  GLY98       0.2639
     47  O         13.5340  -24.7460   35.0780 O.2    98  GLY98      -0.2714
     48  N         14.2530  -26.4950   36.3960 N.am   99  GLY99      -0.1939
     49  CA        14.3140  -25.7970   37.6550 C.3    99  GLY99       0.2014
     50  C         15.2420  -24.6000   37.6730 C.2    99  GLY99       0.2638
     51  O         15.2590  -23.9150   38.7220 O.2    99  GLY99      -0.2714
     52  N         16.0350  -24.3450   36.6010 N.am  100  TYR100     -0.1973
     53  CA        16.8830  -23.1440   36.5560 C.3   100  TYR100      0.1639
     54  C         16.1740  -21.9650   35.9130 C.2   100  TYR100      0.2290
     55  O         16.7460  -20.8920   35.7230 O.2   100  TYR100     -0.2864
     56  CB        18.1350  -23.3960   35.7890 C.3   100  TYR100      0.0560
     57  CG        18.9950  -24.4280   36.4620 C.ar  100  TYR100     -0.0198
     58  CD1       19.9470  -24.0640   37.3920 C.ar  100  TYR100     -0.0009
     59  CD2       18.8020  -25.7450   36.1220 C.ar  100  TYR100     -0.0009
     60  CE1       20.7590  -25.0260   37.9800 C.ar  100  TYR100      0.0417
     61  CE2       19.5970  -26.7230   36.7000 C.ar  100  TYR100      0.0417
     62  CZ        20.5820  -26.3580   37.6150 C.ar  100  TYR100      0.1957
     63  OH        21.3820  -27.3470   38.1680 O.3   100  TYR100     -0.2866
     64  N          7.9440  -25.5160   41.5680 N.3   123  PHE123     -0.1298
     65  CA         8.4360  -26.8750   41.7400 C.3   123  PHE123      0.1290
     66  C          9.7170  -26.8010   42.6090 C.3   123  PHE123      0.2013
     67  O         10.7750  -26.0510   42.3860 O.3   123  PHE123     -0.2188
     68  CB         8.7140  -27.5130   40.3500 C.3   123  PHE123      0.0480
     69  CG         8.9820  -29.0120   40.3350 C.ar  123  PHE123     -0.0206
     70  CD1       10.2580  -29.5430   40.4950 C.ar  123  PHE123     -0.0042
     71  CD2        7.9210  -29.8660   40.1500 C.ar  123  PHE123     -0.0042
     72  CE1       10.4970  -30.9120   40.4920 C.ar  123  PHE123     -0.0003
     73  CE2        8.1740  -31.2310   40.1420 C.ar  123  PHE123     -0.0003
     74  CZ         9.4540  -31.7700   40.3010 C.ar  123  PHE123     -0.0000
     75  N         12.9350  -28.4020   44.0810 N.3   125  ASN125     -0.1240
     76  CA        14.0870  -29.0940   43.5220 C.3   125  ASN125      0.1653
     77  C         14.9150  -29.2590   44.7940 C.2   125  ASN125      0.2266
     78  O         15.3370  -28.2730   45.4320 O.2   125  ASN125     -0.2867
     79  CB        14.8360  -28.2270   42.5140 C.3   125  ASN125      0.1155
     80  CG        13.9570  -27.8030   41.3750 C.2   125  ASN125      0.2627
     81  OD1       13.1350  -26.8610   41.4540 O.2   125  ASN125     -0.2716
     82  ND2       14.0570  -28.4720   40.2690 N.am  125  ASN125     -0.0877
     83  N         18.2470  -27.1830   45.8870 N.3   128  TRP128     -0.1241
     84  CA        18.4350  -25.7720   46.2560 C.3   128  TRP128      0.1605
     85  C         17.2200  -25.0460   46.7870 C.2   128  TRP128      0.2264
     86  O         17.2090  -23.8300   47.0280 O.2   128  TRP128     -0.2867
     87  CB        18.9800  -24.9540   45.0670 C.3   128  TRP128      0.0550
     88  CG        18.1100  -25.0890   43.8420 C.ar  128  TRP128      0.0003
     89  CD1       17.0050  -24.3080   43.6770 C.ar  128  TRP128      0.0946
     90  CD2       18.3230  -25.9310   42.7820 C.ar  128  TRP128      0.0152
     91  NE1       16.4840  -24.6420   42.5090 N.ar  128  TRP128     -0.2442
     92  CE2       17.2460  -25.6050   41.9480 C.ar  128  TRP128      0.0810
     93  CE3       19.2340  -26.9150   42.3940 C.ar  128  TRP128      0.0012
     94  CZ2       17.0420  -26.2270   40.7180 C.ar  128  TRP128      0.0191
     95  CZ3       19.0450  -27.5260   41.1630 C.ar  128  TRP128      0.0001
     96  CH2       17.9680  -27.1840   40.3300 C.ar  128  TRP128      0.0015
@<TRIPOS>BOND
     1     4     3    2
     2    15    14    2
     3    14    13    1
     4     1     2    1
     5     3     2    1
     6     3    12   am
     7    16    13    1
     8    16    17    1
     9     5     2    1
    10     5     6    1
    11    13    12    1
    12    18    17    2
    13    17    19   am
    14     7     6    1
    15     7     8    1
    16     8     9    2
    17     9    10    1
    18     9    11    1
    19    40    41    1
    20    40    35   am
    21    33    34    1
    22    34    35    1
    23    34    37    1
    24    41    42    1
    25    35    36    2
    26    38    37    1
    27    37    39    1
    28    42    44   am
    29    42    43    2
    30    44    45    1
    31    45    46    1
    32    47    46    2
    33    46    48   am
    34    23    22    2
    35    32    30   ar
    36    55    54    2
    37    56    57    1
    38    56    53    1
    39    25    22   am
    40    25    26    1
    41    54    53    1
    42    59    57   ar
    43    59    61   ar
    44    22    21    1
    45    29    30    1
    46    29    26    1
    47    48    49    1
    48    57    58   ar
    49    53    52    1
    50    30    31   ar
    51    52    50   am
    52    61    62   ar
    53    26    27    1
    54    24    21    1
    55    21    20    1
    56    58    60   ar
    57    62    60   ar
    58    62    63    1
    59    49    50    1
    60    50    51    2
    61    27    28    2
    62    73    71   ar
    63    73    74   ar
    64    71    69   ar
    65    82    80   am
    66    74    72   ar
    67    96    94   ar
    68    96    95   ar
    69    69    68    1
    70    69    70   ar
    71    68    65    1
    72    72    70   ar
    73    94    92   ar
    74    95    93   ar
    75    80    81    2
    76    80    79    1
    77    64    65    1
    78    65    66    1
    79    92    91   ar
    80    92    90   ar
    81    67    66    1
    82    93    90   ar
    83    91    89   ar
    84    79    76    1
    85    90    88   ar
    86    76    75    1
    87    76    77    1
    88    89    88   ar
    89    88    87    1
    90    77    78    2
    91    87    84    1
    92    83    84    1
    93    84    85    1
    94    85    86    2
