@<TRIPOS>MOLECULE
tmp/1logC00.pdb
 93 90 0 0 0
SMALL
GASTEIGER

@<TRIPOS>ATOM
      1  N         43.9840   48.1230  -24.1010 N.3    39  ASN39      -0.1240
      2  CA        43.3670   48.4920  -22.8290 C.3    39  ASN39       0.1653
      3  C         42.9510   47.3210  -21.9390 C.2    39  ASN39       0.2266
      4  O         41.7810   47.2140  -21.5710 O.2    39  ASN39      -0.2867
      5  CB        42.1320   49.4010  -23.1010 C.3    39  ASN39       0.1155
      6  CG        42.4140   50.7400  -23.7890 C.2    39  ASN39       0.2627
      7  OD1       43.2400   51.5410  -23.3610 O.2    39  ASN39      -0.2716
      8  ND2       41.7330   51.0660  -24.8660 N.am   39  ASN39      -0.0877
      9  N         55.8500   49.6110  -31.3360 N.3    78  ASN78      -0.1240
     10  CA        54.5660   49.9660  -30.7390 C.3    78  ASN78       0.1653
     11  C         54.3340   48.9500  -29.6370 C.2    78  ASN78       0.2266
     12  O         53.6820   47.9280  -29.8640 O.2    78  ASN78      -0.2867
     13  CB        53.3950   49.8380  -31.7260 C.3    78  ASN78       0.1155
     14  CG        53.4390   50.7670  -32.9260 C.2    78  ASN78       0.2627
     15  OD1       53.4950   51.9970  -32.7970 O.2    78  ASN78      -0.2716
     16  ND2       53.4330   50.1830  -34.1290 N.am   78  ASN78      -0.0877
     17  N         53.5000   48.4040  -25.3260 N.3    80  ALA80      -0.1231
     18  CA        53.0350   48.9880  -24.0790 C.3    80  ALA80       0.1694
     19  C         52.2320   47.9280  -23.2870 C.2    80  ALA80       0.2592
     20  O         51.8910   46.8700  -23.8500 O.2    80  ALA80      -0.2718
     21  CB        52.1520   50.1690  -24.3670 C.3    80  ALA80       0.0304
     22  N         51.9720   48.0420  -21.9720 N.am   81  ASP81      -0.1974
     23  CA        52.6840   48.9890  -21.1350 C.3    81  ASP81       0.1709
     24  C         53.7980   48.3900  -20.3370 C.2    81  ASP81       0.2293
     25  O         54.7260   49.0960  -19.9350 O.2    81  ASP81      -0.2864
     26  CB        51.7200   49.6090  -20.1940 C.3    81  ASP81       0.1436
     27  CG        51.2320   50.8850  -20.8110 C.2    81  ASP81       0.3671
     28  OD1       51.9670   51.9010  -20.7170 O.co2  81  ASP81      -0.2456
     29  OD2       50.1260   50.8280  -21.3710 O.co2  81  ASP81      -0.2456
     30  N         44.8180   50.9590  -15.0900 N.3    97  GLY97      -0.1210
     31  CA        45.4310   50.2340  -16.1950 C.3    97  GLY97       0.1956
     32  C         46.3940   51.1270  -16.9440 C.2    97  GLY97       0.2612
     33  O         46.9220   52.0930  -16.3890 O.2    97  GLY97      -0.2717
     34  N         46.7060   50.8320  -18.1870 N.am   98  GLY98      -0.1942
     35  CA        47.5950   51.6920  -18.9440 C.3    98  GLY98       0.2014
     36  C         48.9850   51.7420  -18.3430 C.2    98  GLY98       0.2639
     37  O         49.5060   50.7570  -17.8160 O.2    98  GLY98      -0.2714
     38  N         49.5020   52.9610  -18.2160 N.am   99  GLY99      -0.1939
     39  CA        50.8490   53.1970  -17.7620 C.3    99  GLY99       0.2014
     40  C         51.0730   52.9660  -16.2900 C.2    99  GLY99       0.2638
     41  O         52.2410   52.9430  -15.8770 O.2    99  GLY99      -0.2714
     42  N         49.9730   52.8110  -15.5500 N.am  100  TYR100     -0.1973
     43  CA        49.9620   52.5750  -14.1090 C.3   100  TYR100      0.1639
     44  C         50.1670   51.1220  -13.7880 C.2   100  TYR100      0.2290
     45  O         50.3100   50.7820  -12.6090 O.2   100  TYR100     -0.2864
     46  CB        48.6320   53.0180  -13.5030 C.3   100  TYR100      0.0560
     47  CG        48.5320   54.5290  -13.5380 C.ar  100  TYR100     -0.0198
     48  CD1       49.1000   55.2520  -12.5200 C.ar  100  TYR100     -0.0009
     49  CD2       47.9100   55.1670  -14.5960 C.ar  100  TYR100     -0.0009
     50  CE1       49.0550   56.6210  -12.5610 C.ar  100  TYR100      0.0417
     51  CE2       47.8630   56.5410  -14.6360 C.ar  100  TYR100      0.0417
     52  CZ        48.4430   57.2550  -13.6130 C.ar  100  TYR100      0.1957
     53  OH        48.4270   58.6300  -13.6350 O.3   100  TYR100     -0.2866
     54  N         56.7840   51.3000  -22.2180 N.3   123  PHE123     -0.1241
     55  CA        56.2680   52.4840  -22.8590 C.3   123  PHE123      0.1605
     56  C         56.5870   53.7090  -22.0240 C.2   123  PHE123      0.2264
     57  O         56.3760   53.7380  -20.7700 O.2   123  PHE123     -0.2867
     58  CB        54.7500   52.2700  -23.0580 C.3   123  PHE123      0.0534
     59  CG        54.0230   53.4330  -23.7270 C.ar  123  PHE123     -0.0203
     60  CD1       53.6870   54.5670  -23.0110 C.ar  123  PHE123     -0.0042
     61  CD2       53.7420   53.3800  -25.0760 C.ar  123  PHE123     -0.0042
     62  CE1       53.1010   55.6410  -23.6410 C.ar  123  PHE123     -0.0003
     63  CE2       53.1530   54.4600  -25.6960 C.ar  123  PHE123     -0.0003
     64  CZ        52.8390   55.5930  -24.9840 C.ar  123  PHE123     -0.0000
     65  N         55.9190   57.1270  -20.6180 N.3   125  ASN125     -0.1225
     66  CA        54.7290   57.8880  -20.2590 C.3   125  ASN125      0.1785
     67  C         55.3920   59.1650  -19.8140 C.2   125  ASN125      0.2597
     68  O         56.1240   59.1300  -18.8090 O.2   125  ASN125     -0.2718
     69  CB        53.9840   57.2760  -19.0860 C.3   125  ASN125      0.1169
     70  CG        53.5060   55.8720  -19.3380 C.2   125  ASN125      0.2627
     71  OD1       54.2160   54.8370  -19.0940 O.2   125  ASN125     -0.2716
     72  ND2       52.2860   55.8900  -19.8360 N.am  125  ASN125     -0.0877
     73  N         55.1640   60.2400  -20.5640 N.am  126  THR126     -0.1953
     74  CA        55.8810   61.5000  -20.3830 C.3   126  THR126      0.1897
     75  C         55.7930   62.0700  -18.9710 C.2   126  THR126      0.2313
     76  O         56.7890   62.5700  -18.4480 O.2   126  THR126     -0.2863
     77  CB        55.3480   62.5280  -21.4570 C.3   126  THR126      0.1794
     78  OG1       53.9270   62.4100  -21.5450 O.3   126  THR126     -0.2208
     79  CG2       55.9020   62.2460  -22.8360 C.3   126  THR126      0.0378
     80  N         55.9430   60.7310  -15.9210 N.3   128  TRP128     -0.1241
     81  CA        56.6850   60.1700  -14.8000 C.3   128  TRP128      0.1605
     82  C         57.8750   59.3220  -15.1430 C.2   128  TRP128      0.2264
     83  O         58.6660   58.9880  -14.2560 O.2   128  TRP128     -0.2867
     84  CB        55.7460   59.3140  -13.9080 C.3   128  TRP128      0.0550
     85  CG        55.0160   58.1310  -14.5640 C.ar  128  TRP128      0.0003
     86  CD1       55.6430   56.9260  -14.8200 C.ar  128  TRP128      0.0946
     87  CD2       53.6930   58.1240  -14.9610 C.ar  128  TRP128      0.0152
     88  NE1       54.7260   56.1560  -15.3770 N.ar  128  TRP128     -0.2442
     89  CE2       53.5630   56.8450  -15.4730 C.ar  128  TRP128      0.0810
     90  CE3       52.6190   58.9990  -14.9470 C.ar  128  TRP128      0.0012
     91  CZ2       52.3540   56.4190  -15.9780 C.ar  128  TRP128      0.0191
     92  CZ3       51.4080   58.5830  -15.4490 C.ar  128  TRP128      0.0001
     93  CH2       51.2870   57.3010  -15.9590 C.ar  128  TRP128      0.0015
@<TRIPOS>BOND
     1    16    14   am
     2    14    15    2
     3    14    13    1
     4    13    10    1
     5     9    10    1
     6    10    11    1
     7    12    11    2
     8    63    61   ar
     9    63    64   ar
    10    17    18    1
    11    61    59   ar
    12    64    62   ar
    13     8     6   am
    14    21    18    1
    15     1     2    1
    16    18    19    1
    17    20    19    2
    18     6     7    2
    19     6     5    1
    20    59    58    1
    21    59    60   ar
    22    62    60   ar
    23    19    22   am
    24     5     2    1
    25    58    55    1
    26    55    54    1
    27    55    56    1
    28    79    77    1
    29     2     3    1
    30    56    57    2
    31    22    23    1
    32     3     4    2
    33    78    77    1
    34    77    74    1
    35    29    27   ar
    36    23    24    1
    37    23    26    1
    38    27    28   ar
    39    27    26    1
    40    65    66    1
    41    73    74    1
    42    73    67   am
    43    74    75    1
    44    24    25    2
    45    66    67    1
    46    66    69    1
    47    72    70   am
    48    67    68    2
    49    70    71    2
    50    70    69    1
    51    75    76    2
    52    35    36    1
    53    35    34    1
    54    36    38   am
    55    36    37    2
    56    38    39    1
    57    34    32   am
    58    39    40    1
    59    32    33    2
    60    32    31    1
    61    40    41    2
    62    40    42   am
    63    31    30    1
    64    91    93   ar
    65    91    89   ar
    66    93    92   ar
    67    80    81    1
    68    42    43    1
    69    89    88   ar
    70    89    87   ar
    71    92    90   ar
    72    88    86   ar
    73    82    81    1
    74    82    83    2
    75    87    90   ar
    76    87    85   ar
    77    86    85   ar
    78    81    84    1
    79    51    49   ar
    80    51    52   ar
    81    49    47   ar
    82    85    84    1
    83    43    44    1
    84    43    46    1
    85    44    45    2
    86    53    52    1
    87    52    50   ar
    88    47    46    1
    89    47    48   ar
    90    50    48   ar
