@<TRIPOS>MOLECULE
tmp/1lolB00.pdb
 142 137 0 0 0
SMALL
GASTEIGER

@<TRIPOS>ATOM
      1  N        -26.3160   58.8750   47.5830 N.3     8  ALA8       -0.1245
      2  CA       -25.2250   58.1370   48.2350 C.3     8  ALA8        0.1562
      3  C        -25.9630   57.2010   49.1900 C.2     8  ALA8        0.2260
      4  O        -26.3630   57.6000   50.2920 O.2     8  ALA8       -0.2867
      5  CB       -24.3020   59.0790   49.0240 C.3     8  ALA8        0.0290
      6  N        -25.7860   55.0990   51.7410 N.3    10  ASP10      -0.1239
      7  CA       -24.8490   54.6770   52.7780 C.3    10  ASP10       0.1674
      8  C        -25.4490   53.8980   53.9560 C.2    10  ASP10       0.2266
      9  O        -24.7740   53.6810   54.9630 O.2    10  ASP10      -0.2867
     10  CB       -24.1020   55.9060   53.3060 C.3    10  ASP10       0.1410
     11  CG       -23.1510   56.5000   52.2770 C.2    10  ASP10       0.3668
     12  OD1      -22.9200   57.7200   52.3150 O.co2  10  ASP10      -0.2456
     13  OD2      -22.6200   55.7450   51.4350 O.co2  10  ASP10      -0.2456
     14  N        -24.7660   55.7340   44.4540 N.3    32  LYS32      -0.1245
     15  CA       -23.3960   55.4010   44.8420 C.3    32  LYS32       0.1561
     16  C        -23.4540   54.4700   46.0440 C.2    32  LYS32       0.2260
     17  O        -24.1290   54.7590   47.0310 O.2    32  LYS32      -0.2867
     18  CB       -22.5920   56.6600   45.2000 C.3    32  LYS32       0.0271
     19  CG       -21.0960   56.3830   45.4980 C.3    32  LYS32       0.0035
     20  CD       -20.2720   57.6860   45.6700 C.3    32  LYS32       0.0206
     21  CE       -20.5330   58.3870   47.0040 C.3    32  LYS32       0.1093
     22  NZ       -20.1960   57.5660   48.1970 N.3    32  LYS32      -0.1314
     23  N        -18.2210   52.9650   45.0540 N.3    60  ASP60      -0.1239
     24  CA       -17.2540   53.8300   45.7040 C.3    60  ASP60       0.1674
     25  C        -16.3020   52.9340   46.4830 C.2    60  ASP60       0.2266
     26  O        -16.3640   52.8550   47.6980 O.2    60  ASP60      -0.2867
     27  CB       -17.9770   54.7980   46.6390 C.3    60  ASP60       0.1410
     28  CG       -17.0540   55.8500   47.2290 C.2    60  ASP60       0.3668
     29  OD1      -15.8390   55.8440   46.9230 O.co2  60  ASP60      -0.2456
     30  OD2      -17.5540   56.6870   48.0030 O.co2  60  ASP60      -0.2456
     31  N        -12.8960   53.1470   46.1470 N.3    62  LYS62      -0.1245
     32  CA       -11.5970   53.8230   46.2970 C.3    62  LYS62       0.1561
     33  C        -10.4320   52.8490   46.1040 C.2    62  LYS62       0.2260
     34  O         -9.5370   52.7300   46.9510 O.2    62  LYS62      -0.2867
     35  CB       -11.5320   54.5200   47.6680 C.3    62  LYS62       0.0271
     36  CG       -12.5600   55.6500   47.7820 C.3    62  LYS62       0.0035
     37  CD       -12.4710   56.4210   49.0820 C.3    62  LYS62       0.0206
     38  CE       -13.5310   57.5140   49.1480 C.3    62  LYS62       0.1093
     39  NZ       -14.9000   56.9210   49.2280 N.3    62  LYS62      -0.1314
     40  N         -9.1840   64.3400   49.1360 N.3   116  MET116     -0.1230
     41  CA       -10.1880   64.1210   50.1640 C.3   116  MET116      0.1702
     42  C        -10.0620   65.3400   51.0850 C.2   116  MET116      0.2593
     43  O         -9.0630   66.0640   51.0170 O.2   116  MET116     -0.2718
     44  CB        -9.8950   62.8170   50.9170 C.3   116  MET116      0.0401
     45  CG        -9.8500   61.5690   50.0110 C.3   116  MET116      0.0596
     46  SD        -9.2060   60.0970   50.8590 S.3   116  MET116     -0.1393
     47  CE       -10.7140   59.3600   51.4000 C.3   116  MET116      0.0692
     48  N        -11.0540   65.5820   51.9280 N.am  117  SER117     -0.1938
     49  CA       -10.9960   66.7470   52.8060 C.3   117  SER117      0.2055
     50  C        -11.1850   66.4420   54.2810 C.2   117  SER117      0.2643
     51  O        -11.2720   67.3530   55.1110 O.2   117  SER117     -0.2714
     52  CB       -12.0300   67.7840   52.3520 C.3   117  SER117      0.2130
     53  OG       -13.3130   67.1940   52.2260 O.3   117  SER117     -0.2179
     54  N        -11.2330   65.1620   54.6190 N.am  118  HIS118     -0.1959
     55  CA       -11.4150   64.7590   56.0080 C.3   118  HIS118      0.1772
     56  C        -10.1640   65.1000   56.8180 C.2   118  HIS118      0.2462
     57  O         -9.0950   65.3550   56.2600 O.2   118  HIS118     -0.2730
     58  CB       -11.6800   63.2540   56.0730 C.3   118  HIS118      0.0785
     59  CG       -10.5500   62.4390   55.5300 C.ar  118  HIS118      0.0821
     60  ND1      -10.2820   62.3510   54.1810 N.ar  118  HIS118     -0.2267
     61  CD2       -9.5600   61.7630   56.1560 C.ar  118  HIS118      0.1154
     62  CE1       -9.1730   61.6590   54.0010 C.ar  118  HIS118      0.1986
     63  NE2       -8.7130   61.2910   55.1830 N.ar  118  HIS118     -0.2212
     64  N        -10.2880   65.1380   58.1560 N.am  119  PRO119     -0.2727
     65  CA        -9.0850   65.4540   58.9280 C.3   119  PRO119      0.1402
     66  C         -7.9880   64.4120   58.6560 C.2   119  PRO119      0.2269
     67  O         -8.2470   63.2060   58.6230 O.2   119  PRO119     -0.2865
     68  CB        -9.5840   65.4620   60.3790 C.3   119  PRO119      0.0296
     69  CG       -10.8770   64.6700   60.3390 C.3   119  PRO119      0.0237
     70  CD       -11.4800   65.0480   59.0170 C.3   119  PRO119      0.0939
     71  N        -13.4640   66.0900   46.5220 N.3   147  PRO147     -0.2102
     72  CA       -13.4230   65.8490   47.9650 C.3   147  PRO147      0.1504
     73  C        -14.7430   66.0540   48.7170 C.2   147  PRO147      0.2576
     74  O        -15.4280   65.0880   49.0520 O.2   147  PRO147     -0.2718
     75  CB       -12.3220   66.7970   48.4420 C.3   147  PRO147      0.0282
     76  CG       -12.3910   67.9330   47.4430 C.3   147  PRO147      0.0208
     77  CD       -12.5540   67.1870   46.1420 C.3   147  PRO147      0.0893
     78  N        -15.0870   67.3150   48.9670 N.am  148  SER148     -0.1953
     79  CA       -16.2890   67.6820   49.7180 C.3   148  SER148      0.1924
     80  C        -16.0460   69.0840   50.2750 C.2   148  SER148      0.2314
     81  O        -14.9060   69.5540   50.3040 O.2   148  SER148     -0.2863
     82  CB       -16.5170   66.6980   50.8750 C.3   148  SER148      0.2116
     83  OG       -17.4800   67.1790   51.7940 O.3   148  SER148     -0.2180
     84  N        -19.9100   65.7010   46.5960 N.3   170  PRO170     -0.2102
     85  CA       -20.9590   65.9070   47.5990 C.3   170  PRO170      0.1504
     86  C        -21.1060   67.4090   47.8370 C.2   170  PRO170      0.2576
     87  O        -20.3820   68.2120   47.2400 O.2   170  PRO170     -0.2718
     88  CB       -20.4290   65.1620   48.8280 C.3   170  PRO170      0.0282
     89  CG       -18.9470   65.2200   48.6690 C.3   170  PRO170      0.0208
     90  CD       -18.7310   65.0350   47.1780 C.3   170  PRO170      0.0893
     91  N        -22.0390   67.7950   48.6930 N.am  171  GLY171     -0.1957
     92  CA       -22.2210   69.2110   48.9650 C.3   171  GLY171      0.1869
     93  C        -21.0340   69.8140   49.7050 C.2   171  GLY171      0.2309
     94  O        -20.7410   71.0070   49.5680 O.2   171  GLY171     -0.2863
     95  N        -23.6510   64.8060   44.8560 N.3   185  ILE185     -0.1231
     96  CA       -23.8930   63.5710   45.5790 C.3   185  ILE185      0.1692
     97  C        -24.5480   63.9410   46.9010 C.2   185  ILE185      0.2592
     98  O        -24.0340   64.7810   47.6330 O.2   185  ILE185     -0.2718
     99  CB       -22.5650   62.8360   45.8580 C.3   185  ILE185      0.0266
    100  CG1      -21.8410   62.5590   44.5310 C.3   185  ILE185      0.0019
    101  CG2      -22.8380   61.5550   46.6290 C.3   185  ILE185      0.0020
    102  CD1      -20.3830   62.0560   44.6960 C.3   185  ILE185      0.0001
    103  N        -25.6760   63.3060   47.2020 N.am  186  VAL186     -0.1966
    104  CA       -26.4250   63.5800   48.4280 C.3   186  VAL186      0.1727
    105  C        -26.8570   62.2950   49.1090 C.2   186  VAL186      0.2617
    106  O        -27.4540   61.4210   48.4690 O.2   186  VAL186     -0.2715
    107  CB       -27.7010   64.4030   48.1300 C.3   186  VAL186      0.0290
    108  CG1      -28.5000   64.6120   49.4200 C.3   186  VAL186      0.0023
    109  CG2      -27.3240   65.7430   47.5040 C.3   186  VAL186      0.0023
    110  N        -26.5620   62.1890   50.4040 N.am  187  GLY187     -0.1940
    111  CA       -26.9250   61.0040   51.1500 C.3   187  GLY187      0.2014
    112  C        -27.9650   61.2500   52.2300 C.2   187  GLY187      0.2639
    113  O        -29.1660   61.1910   51.9690 O.2   187  GLY187     -0.2714
    114  N        -27.4980   61.5360   53.4430 N.am  188  ARG188     -0.1963
    115  CA       -28.3730   61.7760   54.5880 C.3   188  ARG188      0.1729
    116  C        -29.5920   62.6540   54.3530 C.2   188  ARG188      0.2616
    117  O        -30.7050   62.2690   54.7210 O.2   188  ARG188     -0.2715
    118  CB       -27.5640   62.3390   55.7600 C.3   188  ARG188      0.0348
    119  CG       -26.8200   61.2770   56.5340 C.3   188  ARG188      0.0492
    120  CD       -25.3210   61.4300   56.3840 C.3   188  ARG188      0.2205
    121  NE       -24.7250   62.2790   57.4070 N.pl3 188  ARG188     -0.0865
    122  CZ       -23.4570   62.6860   57.3920 C.cat 188  ARG188      0.5346
    123  NH1      -22.6500   62.3320   56.3980 N.pl3 188  ARG188      0.1354
    124  NH2      -22.9880   63.4300   58.3850 N.pl3 188  ARG188      0.1354
    125  N        -29.4000   63.8220   53.7460 N.am  189  SER189     -0.1950
    126  CA       -30.5150   64.7290   53.5000 C.3   189  SER189      0.1924
    127  C        -31.6580   64.0580   52.7680 C.2   189  SER189      0.2314
    128  O        -32.7910   64.5590   52.7720 O.2   189  SER189     -0.2863
    129  CB       -30.0510   65.9450   52.7140 C.3   189  SER189      0.2116
    130  OG       -29.3200   66.8100   53.5550 O.3   189  SER189     -0.2180
    131  N        -31.8070   60.0250   52.4170 N.3   191  TYR191     -0.1241
    132  CA       -32.1730   58.7640   53.0480 C.3   191  TYR191      0.1605
    133  C        -32.5920   58.7720   54.5100 C.2   191  TYR191      0.2264
    134  O        -33.1110   57.7630   55.0020 O.2   191  TYR191     -0.2867
    135  CB       -31.1020   57.6930   52.7940 C.3   191  TYR191      0.0534
    136  CG       -29.7610   57.8920   53.4560 C.ar  191  TYR191     -0.0201
    137  CD1      -29.6260   57.8060   54.8400 C.ar  191  TYR191     -0.0009
    138  CD2      -28.6100   58.0820   52.6860 C.ar  191  TYR191     -0.0009
    139  CE1      -28.3700   57.8960   55.4520 C.ar  191  TYR191      0.0417
    140  CE2      -27.3460   58.1740   53.2800 C.ar  191  TYR191      0.0417
    141  CZ       -27.2330   58.0750   54.6630 C.ar  191  TYR191      0.1957
    142  OH       -25.9900   58.1120   55.2550 O.3   191  TYR191     -0.2866
@<TRIPOS>BOND
     1    14    15    1
     2   100   102    1
     3   100    99    1
     4    15    18    1
     5    15    16    1
     6    95    96    1
     7    23    24    1
     8    18    19    1
     9    19    20    1
    10    96    99    1
    11    96    97    1
    12    20    21    1
    13    24    25    1
    14    24    27    1
    15    99   101    1
    16    16    17    2
    17    33    32    1
    18    33    34    2
    19    77    71    1
    20    77    76    1
    21    31    32    1
    22    32    35    1
    23    25    26    2
    24    71    72    1
    25    84    90    1
    26    84    85    1
    27    27    28    1
    28    97   103   am
    29    97    98    2
    30    29    28   ar
    31    21    22    1
    32    90    89    1
    33   103   104    1
    34    28    30   ar
    35    87    86    2
    36    76    75    1
    37   109   107    1
    38     1     2    1
    39    85    86    1
    40    85    88    1
    41    35    36    1
    42    36    37    1
    43    86    91   am
    44    72    75    1
    45    72    73    1
    46   107   104    1
    47   107   108    1
    48     2     5    1
    49     2     3    1
    50   104   105    1
    51   106   105    2
    52    89    88    1
    53    91    92    1
    54    73    78   am
    55    73    74    2
    56    92    93    1
    57    78    79    1
    58    37    38    1
    59   105   110   am
    60    40    41    1
    61    38    39    1
    62     3     4    2
    63    94    93    2
    64    79    80    1
    65    79    82    1
    66    45    46    1
    67    45    44    1
    68    41    44    1
    69    41    42    1
    70    80    81    2
    71   110   111    1
    72    46    47    1
    73    82    83    1
    74    43    42    2
    75    42    48   am
    76   111   112    1
    77    13    11   ar
    78     6     7    1
    79    48    49    1
    80   113   112    2
    81    53    52    1
    82   112   114   am
    83    11    12   ar
    84    11    10    1
    85    52    49    1
    86   131   132    1
    87   138   140   ar
    88   138   136   ar
    89   129   126    1
    90   129   130    1
    91   127   128    2
    92   127   126    1
    93     7    10    1
    94     7     8    1
    95   135   132    1
    96   135   136    1
    97    49    50    1
    98   132   133    1
    99   140   141   ar
   100   114   115    1
   101   136   137   ar
   102   126   125    1
   103   125   116   am
   104     8     9    2
   105    62    60   ar
   106    62    63   ar
   107    60    59   ar
   108    50    54   am
   109    50    51    2
   110   116   115    1
   111   116   117    2
   112   133   134    2
   113   115   118    1
   114    54    55    1
   115   141   142    1
   116   141   139   ar
   117   137   139   ar
   118    63    61   ar
   119    59    58    1
   120    59    61   ar
   121   118   119    1
   122    55    58    1
   123    55    56    1
   124    57    56    2
   125   120   119    1
   126   120   121    1
   127   123   122    1
   128    56    64   am
   129   122   121    2
   130   122   124    1
   131    64    65    1
   132    64    70    1
   133    67    66    2
   134    66    65    1
   135    65    68    1
   136    70    69    1
   137    69    68    1
