@<TRIPOS>MOLECULE
tmp/1lonA01.pdb
 86 79 0 0 0
SMALL
GASTEIGER

@<TRIPOS>ATOM
      1  N          3.9970   14.2040   33.2220 N.3    17  ASP17      -0.1239
      2  CA         4.6540   15.2620   32.4700 C.3    17  ASP17       0.1674
      3  C          3.7230   16.1100   31.6100 C.2    17  ASP17       0.2266
      4  O          4.1020   16.5370   30.5160 O.2    17  ASP17      -0.2867
      5  CB         5.7270   14.6240   31.6010 C.3    17  ASP17       0.1410
      6  CG         6.5330   13.6010   32.3630 C.2    17  ASP17       0.3668
      7  OD1        7.0090   13.9450   33.4630 O.co2  17  ASP17      -0.2456
      8  OD2        6.6820   12.4620   31.8750 O.co2  17  ASP17      -0.2456
      9  N         10.4760   10.1790   41.7010 N.3    42  ASN42      -0.1225
     10  CA        10.3920    9.5870   40.3740 C.3    42  ASN42       0.1785
     11  C          9.7790   10.6970   39.5150 C.2    42  ASN42       0.2597
     12  O          9.9260   10.7280   38.2880 O.2    42  ASN42      -0.2718
     13  CB         9.5070    8.3250   40.3800 C.3    42  ASN42       0.1169
     14  CG         8.2230    8.4890   41.1930 C.2    42  ASN42       0.2627
     15  OD1        8.0990    9.3860   42.0250 O.2    42  ASN42      -0.2716
     16  ND2        7.2740    7.5940   40.9650 N.am   42  ASN42      -0.0877
     17  N          9.1260   11.6280   40.2090 N.am   43  ALA43      -0.1966
     18  CA         8.4740   12.7820   39.6070 C.3    43  ALA43       0.1728
     19  C          9.4970   13.8140   39.1890 C.2    43  ALA43       0.2616
     20  O         10.5480   13.9560   39.8100 O.2    43  ALA43      -0.2715
     21  CB         7.5000   13.4160   40.6060 C.3    43  ALA43       0.0334
     22  N          9.1660   14.5380   38.1290 N.am   44  GLY44      -0.1955
     23  CA        10.0310   15.5870   37.6250 C.3    44  GLY44       0.1869
     24  C          9.0930   16.6880   37.1930 C.2    44  GLY44       0.2309
     25  O          8.4040   16.5470   36.1860 O.2    44  GLY44      -0.2863
     26  N         11.7410    4.5420   36.9950 N.3   137  THR137     -0.1218
     27  CA        12.7740    5.5650   37.0580 C.3   137  THR137      0.1862
     28  C         13.9410    5.0430   37.8870 C.2   137  THR137      0.2287
     29  O         14.9230    5.7540   38.1130 O.2   137  THR137     -0.2866
     30  CB        12.2660    6.8690   37.7230 C.3   137  THR137      0.1770
     31  OG1       11.8030    6.5900   39.0540 O.3   137  THR137     -0.2211
     32  CG2       11.1400    7.4900   36.8970 C.3   137  THR137      0.0375
     33  N          6.4470    7.7440   29.1250 N.3   279  VAL279     -0.1245
     34  CA         7.8620    7.4130   29.2390 C.3   279  VAL279      0.1561
     35  C          7.9540    6.1300   30.0730 C.2   279  VAL279      0.2260
     36  O          7.6260    6.1070   31.2630 O.2   279  VAL279     -0.2867
     37  CB         8.6810    8.5860   29.8550 C.3   279  VAL279      0.0252
     38  CG1        8.2070    8.9000   31.2370 C.3   279  VAL279      0.0019
     39  CG2       10.1610    8.2370   29.8480 C.3   279  VAL279      0.0019
     40  N         12.5600   12.8660   29.6870 N.3   304  GLY304     -0.1210
     41  CA        12.4350   12.7720   31.1270 C.3   304  GLY304      0.1956
     42  C         13.1740   13.8080   31.9490 C.2   304  GLY304      0.2612
     43  O         14.3860   13.9970   31.8170 O.2   304  GLY304     -0.2717
     44  N         12.4220   14.4780   32.8140 N.am  305  VAL305     -0.1965
     45  CA        12.9560   15.4940   33.7080 C.3   305  VAL305      0.1727
     46  C         13.7060   14.7880   34.8410 C.2   305  VAL305      0.2617
     47  O         14.5090   15.3970   35.5470 O.2   305  VAL305     -0.2715
     48  CB        11.7880   16.3520   34.3090 C.3   305  VAL305      0.0290
     49  CG1       12.3140   17.3110   35.3920 C.3   305  VAL305      0.0023
     50  CG2       11.0760   17.1220   33.1960 C.3   305  VAL305      0.0023
     51  N         13.4440   13.4920   34.9890 N.am  306  THR306     -0.1937
     52  CA        14.0540   12.6890   36.0440 C.3   306  THR306      0.2028
     53  C         15.1020   11.6870   35.5560 C.2   306  THR306      0.2642
     54  O         16.0970   11.4420   36.2430 O.2   306  THR306     -0.2714
     55  CB        12.9550   11.9170   36.8480 C.3   306  THR306      0.1808
     56  OG1       12.2200   12.8430   37.6530 O.3   306  THR306     -0.2208
     57  CG2       13.5620   10.8570   37.7520 C.3   306  THR306      0.0379
     58  N         14.8860   11.1140   34.3780 N.am  307  THR307     -0.1950
     59  CA        15.8050   10.1120   33.8530 C.3   307  THR307      0.1897
     60  C         16.4990   10.4850   32.5460 C.2   307  THR307      0.2313
     61  O         17.3950    9.7720   32.0880 O.2   307  THR307     -0.2863
     62  CB        15.0770    8.7570   33.6410 C.3   307  THR307      0.1794
     63  OG1       14.0200    8.9180   32.6850 O.3   307  THR307     -0.2208
     64  CG2       14.4980    8.2540   34.9540 C.3   307  THR307      0.0378
     65  N         15.3230   10.1790   29.8620 N.3   309  ARG309     -0.1245
     66  CA        14.7680    9.3060   28.8360 C.3   309  ARG309      0.1563
     67  C         13.8490   10.0420   27.8590 C.2   309  ARG309      0.2260
     68  O         13.0300   10.8810   28.2460 O.2   309  ARG309     -0.2867
     69  CB        13.9710    8.1630   29.4680 C.3   309  ARG309      0.0307
     70  CG        14.7970    7.0820   30.1180 C.3   309  ARG309      0.0489
     71  CD        13.8860    5.9850   30.6470 C.3   309  ARG309      0.2205
     72  NE        12.9930    6.4590   31.7060 N.pl3 309  ARG309     -0.0865
     73  CZ        12.0210    5.7290   32.2490 C.cat 309  ARG309      0.5346
     74  NH1       11.8040    4.4840   31.8320 N.pl3 309  ARG309      0.1354
     75  NH2       11.2740    6.2380   33.2180 N.pl3 309  ARG309      0.1354
     76  N         10.7780   10.5990   25.8200 N.3   311  ARG311     -0.1245
     77  CA         9.4000   10.1800   25.9840 C.3   311  ARG311      0.1563
     78  C          8.7560    9.8070   24.6650 C.2   311  ARG311      0.2260
     79  O          9.0950   10.3550   23.6240 O.2   311  ARG311     -0.2867
     80  CB         8.6090   11.2920   26.6870 C.3   311  ARG311      0.0307
     81  CG         9.2730   11.7150   27.9990 C.3   311  ARG311      0.0489
     82  CD         8.3500   12.4490   28.9550 C.3   311  ARG311      0.2205
     83  NE         8.4040   13.9000   28.8090 N.pl3 311  ARG311     -0.0865
     84  CZ         8.7370   14.7460   29.7830 C.cat 311  ARG311      0.5346
     85  NH1        9.0590   14.2900   30.9890 N.pl3 311  ARG311      0.1354
     86  NH2        8.7240   16.0570   29.5600 N.pl3 311  ARG311      0.1354
@<TRIPOS>BOND
     1    79    78    2
     2    78    77    1
     3    76    77    1
     4    77    80    1
     5    80    81    1
     6    67    68    2
     7    67    66    1
     8    81    82    1
     9    83    82    1
    10    83    84    2
    11    66    69    1
    12    66    65    1
    13    33    34    1
    14    34    37    1
    15    34    35    1
    16    69    70    1
    17    86    84    1
    18    40    41    1
    19    84    85    1
    20    39    37    1
    21    37    38    1
    22    35    36    2
    23    70    71    1
    24     4     3    2
    25    71    72    1
    26    41    42    1
    27     5     6    1
    28     5     2    1
    29     3     2    1
    30    72    73    2
    31    43    42    2
    32    74    73    1
    33     8     6   ar
    34    42    44   am
    35    61    60    2
    36    73    75    1
    37     6     7   ar
    38     2     1    1
    39    60    59    1
    40    63    62    1
    41    44    45    1
    42    50    48    1
    43    62    59    1
    44    62    64    1
    45    45    48    1
    46    45    46    1
    47    59    58    1
    48    48    49    1
    49    58    53   am
    50    46    51   am
    51    46    47    2
    52    51    52    1
    53    53    52    1
    54    53    54    2
    55    52    55    1
    56    25    24    2
    57    55    56    1
    58    55    57    1
    59    32    30    1
    60    26    27    1
    61    27    30    1
    62    27    28    1
    63    24    23    1
    64    23    22    1
    65    30    31    1
    66    28    29    2
    67    22    19   am
    68    12    11    2
    69    19    18    1
    70    19    20    2
    71    11    17   am
    72    11    10    1
    73    18    17    1
    74    18    21    1
    75    10    13    1
    76    10     9    1
    77    13    14    1
    78    16    14   am
    79    14    15    2
