@<TRIPOS>MOLECULE
tmp/1lonA02.pdb
 163 154 0 0 0
SMALL
GASTEIGER

@<TRIPOS>ATOM
      1  N          3.9970   14.2040   33.2220 N.3    17  ASP17      -0.1225
      2  CA         4.6540   15.2620   32.4700 C.3    17  ASP17       0.1805
      3  C          3.7230   16.1100   31.6100 C.2    17  ASP17       0.2598
      4  O          4.1020   16.5370   30.5160 O.2    17  ASP17      -0.2718
      5  CB         5.7270   14.6240   31.6010 C.3    17  ASP17       0.1424
      6  CG         6.5330   13.6010   32.3630 C.2    17  ASP17       0.3668
      7  OD1        7.0090   13.9450   33.4630 O.co2  17  ASP17      -0.2456
      8  OD2        6.6820   12.4620   31.8750 O.co2  17  ASP17      -0.2456
      9  N          2.5140   16.3630   32.1110 N.am   18  GLU18      -0.1965
     10  CA         1.5280   17.1670   31.3910 C.3    18  GLU18       0.1733
     11  C          1.7360   18.6630   31.6310 C.2    18  GLU18       0.2617
     12  O          1.2290   19.4900   30.8790 O.2    18  GLU18      -0.2715
     13  CB         0.1070   16.8030   31.8340 C.3    18  GLU18       0.0429
     14  CG        -0.2880   15.3430   31.6760 C.3    18  GLU18       0.1163
     15  CD         0.0240   14.4870   32.9060 C.2    18  GLU18       0.3649
     16  OE1       -0.3940   13.3080   32.9180 O.co2  18  GLU18      -0.2457
     17  OE2        0.6780   14.9870   33.8510 O.co2  18  GLU18      -0.2457
     18  N          2.4690   18.9980   32.6910 N.am   19  GLY19      -0.1940
     19  CA         2.7160   20.3920   33.0260 C.3    19  GLY19       0.2014
     20  C          2.2560   20.7730   34.4330 C.2    19  GLY19       0.2639
     21  O          2.0410   21.9520   34.7150 O.2    19  GLY19      -0.2714
     22  N          2.1090   19.7830   35.3180 N.am   20  LYS20      -0.1963
     23  CA         1.6690   20.0100   36.7020 C.3    20  LYS20       0.1728
     24  C          2.5590   21.0240   37.4240 C.2    20  LYS20       0.2617
     25  O          2.0700   21.8370   38.2150 O.2    20  LYS20      -0.2715
     26  CB         1.6710   18.6910   37.5000 C.3    20  LYS20       0.0311
     27  CG         0.8000   17.5770   36.9170 C.3    20  LYS20       0.0038
     28  CD         0.9210   16.2580   37.7060 C.3    20  LYS20       0.0206
     29  CE         2.3200   15.6220   37.6180 C.3    20  LYS20       0.1093
     30  NZ         2.7130   15.2230   36.2270 N.3    20  LYS20      -0.1314
     31  N          3.8680   20.9570   37.1640 N.am   21  GLY21      -0.1940
     32  CA         4.8090   21.8780   37.7880 C.3    21  GLY21       0.2014
     33  C          4.5030   23.3090   37.3980 C.2    21  GLY21       0.2638
     34  O          4.5480   24.2100   38.2350 O.2    21  GLY21      -0.2714
     35  N          4.1880   23.5090   36.1210 N.am   22  LYS22      -0.1977
     36  CA         3.8440   24.8240   35.5870 C.3    22  LYS22       0.1596
     37  C          2.4940   25.2960   36.1320 C.2    22  LYS22       0.2287
     38  O          2.3250   26.4700   36.4760 O.2    22  LYS22      -0.2864
     39  CB         3.7780   24.7750   34.0630 C.3    22  LYS22       0.0298
     40  CG         3.1260   25.9930   33.4250 C.3    22  LYS22       0.0038
     41  CD         2.8940   25.7420   31.9590 C.3    22  LYS22       0.0206
     42  CE         2.1160   26.8680   31.3190 C.3    22  LYS22       0.1093
     43  NZ         2.8460   28.1590   31.3810 N.3    22  LYS22      -0.1314
     44  N          9.1660   14.5380   38.1290 N.3    44  GLY44      -0.1210
     45  CA        10.0310   15.5870   37.6250 C.3    44  GLY44       0.1956
     46  C          9.0930   16.6880   37.1930 C.2    44  GLY44       0.2612
     47  O          8.4040   16.5470   36.1860 O.2    44  GLY44      -0.2717
     48  N          9.0480   17.7680   37.9630 N.am   45  HIS45      -0.1961
     49  CA         8.1540   18.8750   37.6640 C.3    45  HIS45       0.1787
     50  C          8.9540   20.1230   37.3710 C.2    45  HIS45       0.2620
     51  O          9.6960   20.6070   38.2300 O.2    45  HIS45      -0.2715
     52  CB         7.2080   19.1090   38.8470 C.3    45  HIS45       0.0785
     53  CG         6.3400   17.9290   39.1670 C.ar   45  HIS45       0.0821
     54  ND1        5.6160   17.8340   40.3340 N.ar   45  HIS45      -0.2267
     55  CD2        6.0850   16.7930   38.4750 C.ar   45  HIS45       0.1154
     56  CE1        4.9550   16.6900   40.3510 C.ar   45  HIS45       0.1986
     57  NE2        5.2230   16.0390   39.2350 N.ar   45  HIS45      -0.2212
     58  N          8.7900   20.6370   36.1540 N.am   46  THR46      -0.1951
     59  CA         9.5060   21.8240   35.6920 C.3    46  THR46       0.1897
     60  C          8.7660   23.1440   35.8790 C.2    46  THR46       0.2313
     61  O          7.6080   23.2750   35.4990 O.2    46  THR46      -0.2863
     62  CB         9.8470   21.7020   34.2070 C.3    46  THR46       0.1794
     63  OG1       10.6620   20.5420   34.0010 O.3    46  THR46      -0.2208
     64  CG2       10.5760   22.9530   33.7260 C.3    46  THR46       0.0378
     65  N         14.7700   28.6210   35.3650 N.3    53  GLU53      -0.1245
     66  CA        14.1410   27.3070   35.3230 C.3    53  GLU53       0.1567
     67  C         14.5820   26.3770   36.4520 C.2    53  GLU53       0.2260
     68  O         15.7570   26.3320   36.8140 O.2    53  GLU53      -0.2867
     69  CB        14.4210   26.6460   33.9760 C.3    53  GLU53       0.0388
     70  CG        14.1860   25.1480   33.9600 C.3    53  GLU53       0.1160
     71  CD        14.1690   24.5890   32.5560 C.2    53  GLU53       0.3649
     72  OE1       14.9940   25.0450   31.7330 O.co2  53  GLU53      -0.2457
     73  OE2       13.3400   23.6920   32.2770 O.co2  53  GLU53      -0.2457
     74  N         -2.1750   17.6480   28.4970 N.3   273  LYS273     -0.1245
     75  CA        -1.2640   18.0670   27.4350 C.3   273  LYS273      0.1561
     76  C         -2.0760   17.9890   26.1340 C.2   273  LYS273      0.2260
     77  O         -2.9350   17.1090   26.0070 O.2   273  LYS273     -0.2867
     78  CB        -0.0700   17.1160   27.3700 C.3   273  LYS273      0.0271
     79  CG         0.9850   17.4980   26.3340 C.3   273  LYS273      0.0035
     80  CD         2.1650   16.5200   26.3280 C.3   273  LYS273      0.0206
     81  CE         2.9200   16.5590   27.6470 C.3   273  LYS273      0.1093
     82  NZ         3.9870   15.5400   27.7410 N.3   273  LYS273     -0.1314
     83  N          8.4230   19.6270   21.3550 N.3   300  GLY300     -0.1210
     84  CA         8.0190   19.6700   22.7470 C.3   300  GLY300      0.1956
     85  C          9.1360   19.4490   23.7480 C.2   300  GLY300      0.2611
     86  O          8.9270   19.6580   24.9500 O.2   300  GLY300     -0.2717
     87  N         10.3170   19.0460   23.2670 N.am  301  HIS301     -0.1975
     88  CA        11.4690   18.7760   24.1380 C.3   301  HIS301      0.1656
     89  C         11.0740   17.6950   25.1380 C.2   301  HIS301      0.2291
     90  O         11.3300   17.8080   26.3400 O.2   301  HIS301     -0.2864
     91  CB        11.8820   20.0540   24.8690 C.3   301  HIS301      0.0771
     92  CG        12.3480   21.1410   23.9500 C.ar  301  HIS301      0.0820
     93  ND1       11.5900   21.5940   22.8910 N.ar  301  HIS301     -0.2267
     94  CD2       13.5120   21.8330   23.8990 C.ar  301  HIS301      0.1154
     95  CE1       12.2650   22.5140   22.2260 C.ar  301  HIS301      0.1986
     96  NE2       13.4350   22.6770   22.8170 N.ar  301  HIS301     -0.2212
     97  N         12.4220   14.4780   32.8140 N.3   305  VAL305     -0.1245
     98  CA        12.9560   15.4940   33.7080 C.3   305  VAL305      0.1561
     99  C         13.7060   14.7880   34.8410 C.2   305  VAL305      0.2260
    100  O         14.5090   15.3970   35.5470 O.2   305  VAL305     -0.2867
    101  CB        11.7880   16.3520   34.3090 C.3   305  VAL305      0.0252
    102  CG1       12.3140   17.3110   35.3920 C.3   305  VAL305      0.0019
    103  CG2       11.0760   17.1220   33.1960 C.3   305  VAL305      0.0019
    104  N         10.7780   10.5990   25.8200 N.3   311  ARG311     -0.1245
    105  CA         9.4000   10.1800   25.9840 C.3   311  ARG311      0.1563
    106  C          8.7560    9.8070   24.6650 C.2   311  ARG311      0.2260
    107  O          9.0950   10.3550   23.6240 O.2   311  ARG311     -0.2867
    108  CB         8.6090   11.2920   26.6870 C.3   311  ARG311      0.0307
    109  CG         9.2730   11.7150   27.9990 C.3   311  ARG311      0.0489
    110  CD         8.3500   12.4490   28.9550 C.3   311  ARG311      0.2205
    111  NE         8.4040   13.9000   28.8090 N.pl3 311  ARG311     -0.0865
    112  CZ         8.7370   14.7460   29.7830 C.cat 311  ARG311      0.5346
    113  NH1        9.0590   14.2900   30.9890 N.pl3 311  ARG311      0.1354
    114  NH2        8.7240   16.0570   29.5600 N.pl3 311  ARG311      0.1354
    115  N         -2.3660   22.2000   28.2770 N.3   336  THR336     -0.1203
    116  CA        -0.9910   22.6290   28.1000 C.3   336  THR336      0.1994
    117  C         -0.3510   22.2850   26.7770 C.2   336  THR336      0.2617
    118  O         -0.7910   21.3790   26.0680 O.2   336  THR336     -0.2717
    119  CB        -0.1050   22.0130   29.1740 C.3   336  THR336      0.1784
    120  OG1       -0.1910   20.5830   29.0720 O.3   336  THR336     -0.2211
    121  CG2       -0.5430   22.4550   30.5580 C.3   336  THR336      0.0376
    122  N          0.7260   23.0220   26.4950 N.am  337  LYS337     -0.1979
    123  CA         1.5370   22.8620   25.3010 C.3   337  LYS337      0.1596
    124  C          0.7440   22.9740   24.0180 C.2   337  LYS337      0.2287
    125  O          0.9970   22.2470   23.0650 O.2   337  LYS337     -0.2864
    126  CB         2.2650   21.5240   25.3680 C.3   337  LYS337      0.0298
    127  CG         2.8980   21.2870   26.7260 C.3   337  LYS337      0.0038
    128  CD         3.9670   20.2150   26.7130 C.3   337  LYS337      0.0206
    129  CE         5.2360   20.7090   26.0490 C.3   337  LYS337      0.1093
    130  NZ         6.3490   19.7840   26.3570 N.3   337  LYS337     -0.1314
    131  N          0.8540   25.4440   22.0330 N.3   339  ASP339     -0.1225
    132  CA         1.8010   26.0250   21.0840 C.3   339  ASP339      0.1805
    133  C          2.6520   25.0040   20.3170 C.2   339  ASP339      0.2597
    134  O          3.1550   25.2920   19.2270 O.2   339  ASP339     -0.2718
    135  CB         2.7160   27.0390   21.7900 C.3   339  ASP339      0.1424
    136  CG         3.4740   26.4430   22.9630 C.2   339  ASP339      0.3668
    137  OD1        4.7110   26.6280   23.0360 O.co2 339  ASP339     -0.2456
    138  OD2        2.8310   25.8030   23.8220 O.co2 339  ASP339     -0.2456
    139  N          2.8150   23.8120   20.8760 N.am  340  ILE340     -0.1980
    140  CA         3.5970   22.7860   20.2050 C.3   340  ILE340      0.1595
    141  C          2.9350   22.4760   18.8710 C.2   340  ILE340      0.2287
    142  O          3.6030   22.1460   17.8960 O.2   340  ILE340     -0.2864
    143  CB         3.6530   21.4730   21.0420 C.3   340  ILE340      0.0276
    144  CG1        4.2870   21.7470   22.4010 C.3   340  ILE340      0.0022
    145  CG2        4.4050   20.3920   20.2900 C.3   340  ILE340      0.0022
    146  CD1        5.5840   22.4620   22.3390 C.3   340  ILE340      0.0001
    147  N         -2.0270   26.6080   28.0890 N.3   419  GLY419     -0.1225
    148  CA        -0.5940   26.8430   28.1000 C.3   419  GLY419      0.1811
    149  C         -0.0520   27.0930   26.7040 C.2   419  GLY419      0.2280
    150  O         -0.3730   26.3660   25.7550 O.2   419  GLY419     -0.2866
    151  N          3.4400   28.1820   26.5190 N.3   421  GLY421     -0.1210
    152  CA         4.8560   28.3420   26.8040 C.3   421  GLY421      0.1956
    153  C          5.1590   27.6950   28.1400 C.2   421  GLY421      0.2611
    154  O          4.2370   27.3120   28.8570 O.2   421  GLY421     -0.2717
    155  N          6.4310   27.5630   28.4930 N.am  422  LYS422     -0.1979
    156  CA         6.7610   26.9320   29.7600 C.3   422  LYS422      0.1596
    157  C          6.9090   27.9230   30.9030 C.2   422  LYS422      0.2287
    158  O          6.9220   27.5330   32.0730 O.2   422  LYS422     -0.2864
    159  CB         8.0230   26.0750   29.6210 C.3   422  LYS422      0.0298
    160  CG         9.1920   26.7590   28.9580 C.3   422  LYS422      0.0038
    161  CD        10.1300   25.7360   28.3110 C.3   422  LYS422      0.0206
    162  CE        10.8190   24.8660   29.3380 C.3   422  LYS422      0.1093
    163  NZ        11.5970   23.7860   28.6890 N.3   422  LYS422     -0.1314
@<TRIPOS>BOND
     1   142   141    2
     2   141   140    1
     3   134   133    2
     4   140   139    1
     5   140   143    1
     6   145   143    1
     7   133   139   am
     8   133   132    1
     9   143   144    1
    10   132   135    1
    11   132   131    1
    12    83    84    1
    13   135   136    1
    14    95    96   ar
    15    95    93   ar
    16   146   144    1
    17    84    85    1
    18    96    94   ar
    19    93    92   ar
    20   136   137   ar
    21   136   138   ar
    22   125   124    2
    23    87    85   am
    24    87    88    1
    25   107   106    2
    26    85    86    2
    27    94    92   ar
    28    92    91    1
    29   124   123    1
    30    88    91    1
    31    88    89    1
    32   106   105    1
    33    89    90    2
    34   123   126    1
    35   123   122    1
    36   126   127    1
    37   150   149    2
    38   104   105    1
    39   105   108    1
    40    77    76    2
    41   129   130    1
    42   129   128    1
    43   118   117    2
    44    76    75    1
    45    80    79    1
    46    80    81    1
    47    79    78    1
    48   122   117   am
    49   151   152    1
    50   108   109    1
    51   149   148    1
    52   128   127    1
    53   117   116    1
    54   152   153    1
    55    78    75    1
    56    75    74    1
    57    81    82    1
    58   109   110    1
    59   147   148    1
    60   116   115    1
    61   116   119    1
    62   153   155   am
    63   153   154    2
    64   161   160    1
    65   161   162    1
    66   155   156    1
    67   163   162    1
    68   111   110    1
    69   111   112    2
    70   160   159    1
    71   120   119    1
    72   119   121    1
    73   114   112    1
    74   159   156    1
    75   156   157    1
    76   112   113    1
    77     4     3    2
    78    12    11    2
    79   157   158    2
    80    42    43    1
    81    42    41    1
    82    10    11    1
    83    10    13    1
    84    10     9    1
    85     5     6    1
    86     5     2    1
    87     3     9   am
    88     3     2    1
    89    11    18   am
    90    14    13    1
    91    14    15    1
    92    72    71   ar
    93     8     6   ar
    94    41    40    1
    95    73    71   ar
    96     6     7   ar
    97     2     1    1
    98    71    70    1
    99    18    19    1
   100    97    98    1
   101    15    16   ar
   102    15    17   ar
   103    19    20    1
   104   103   101    1
   105    40    39    1
   106    98   101    1
   107    98    99    1
   108    64    62    1
   109    70    69    1
   110    69    66    1
   111    63    62    1
   112    39    36    1
   113    62    59    1
   114   101   102    1
   115    20    21    2
   116    20    22   am
   117    99   100    2
   118    22    23    1
   119    66    65    1
   120    66    67    1
   121    61    60    2
   122    36    35    1
   123    36    37    1
   124    59    60    1
   125    59    58    1
   126    35    33   am
   127    37    38    2
   128    58    50   am
   129    47    46    2
   130    30    29    1
   131    67    68    2
   132    23    24    1
   133    23    26    1
   134    27    26    1
   135    27    28    1
   136    31    24   am
   137    31    32    1
   138    46    45    1
   139    46    48   am
   140    50    49    1
   141    50    51    2
   142    33    32    1
   143    33    34    2
   144    24    25    2
   145    29    28    1
   146    45    44    1
   147    49    48    1
   148    49    52    1
   149    55    53   ar
   150    55    57   ar
   151    52    53    1
   152    53    54   ar
   153    57    56   ar
   154    54    56   ar
