@<TRIPOS>MOLECULE
tmp/1lonA00.pdb
 205 198 0 0 0
SMALL
GASTEIGER

@<TRIPOS>ATOM
      1  N         -0.3070   10.3270   31.3240 N.3    15  TRP15      -0.1227
      2  CA         0.7600    9.4560   31.8220 C.3    15  TRP15       0.1737
      3  C          1.9150   10.2610   32.3720 C.2    15  TRP15       0.2596
      4  O          3.0630    9.8560   32.2450 O.2    15  TRP15      -0.2718
      5  CB         1.2930    8.5440   30.7180 C.3    15  TRP15       0.0564
      6  CG         0.5120    7.2830   30.5140 C.ar   15  TRP15       0.0003
      7  CD1        0.3780    6.2490   31.4000 C.ar   15  TRP15       0.0946
      8  CD2       -0.2330    6.9110   29.3430 C.ar   15  TRP15       0.0152
      9  NE1       -0.4030    5.2570   30.8520 N.ar   15  TRP15      -0.2442
     10  CE2       -0.7890    5.6350   29.5910 C.ar   15  TRP15       0.0810
     11  CE3       -0.4790    7.5310   28.1050 C.ar   15  TRP15       0.0012
     12  CZ2       -1.5830    4.9620   28.6440 C.ar   15  TRP15       0.0191
     13  CZ3       -1.2710    6.8610   27.1600 C.ar   15  TRP15       0.0001
     14  CH2       -1.8090    5.5900   27.4380 C.ar   15  TRP15       0.0015
     15  N          1.6030   11.4080   32.9650 N.am   16  GLY16      -0.1942
     16  CA         2.6240   12.2580   33.5520 C.3    16  GLY16       0.2014
     17  C          3.1960   13.3220   32.6370 C.2    16  GLY16       0.2638
     18  O          2.9050   13.3690   31.4340 O.2    16  GLY16      -0.2714
     19  N          3.9970   14.2040   33.2220 N.am   17  ASP17      -0.1971
     20  CA         4.6540   15.2620   32.4700 C.3    17  ASP17       0.1709
     21  C          3.7230   16.1100   31.6100 C.2    17  ASP17       0.2293
     22  O          4.1020   16.5370   30.5160 O.2    17  ASP17      -0.2864
     23  CB         5.7270   14.6240   31.6010 C.3    17  ASP17       0.1436
     24  CG         6.5330   13.6010   32.3630 C.2    17  ASP17       0.3671
     25  OD1        7.0090   13.9450   33.4630 O.co2  17  ASP17      -0.2456
     26  OD2        6.6820   12.4620   31.8750 O.co2  17  ASP17      -0.2456
     27  N          2.1090   19.7830   35.3180 N.3    20  LYS20      -0.1245
     28  CA         1.6690   20.0100   36.7020 C.3    20  LYS20       0.1561
     29  C          2.5590   21.0240   37.4240 C.2    20  LYS20       0.2260
     30  O          2.0700   21.8370   38.2150 O.2    20  LYS20      -0.2867
     31  CB         1.6710   18.6910   37.5000 C.3    20  LYS20       0.0271
     32  CG         0.8000   17.5770   36.9170 C.3    20  LYS20       0.0035
     33  CD         0.9210   16.2580   37.7060 C.3    20  LYS20       0.0206
     34  CE         2.3200   15.6220   37.6180 C.3    20  LYS20       0.1093
     35  NZ         2.7130   15.2230   36.2270 N.3    20  LYS20      -0.1314
     36  N         10.4760   10.1790   41.7010 N.3    42  ASN42      -0.1225
     37  CA        10.3920    9.5870   40.3740 C.3    42  ASN42       0.1785
     38  C          9.7790   10.6970   39.5150 C.2    42  ASN42       0.2597
     39  O          9.9260   10.7280   38.2880 O.2    42  ASN42      -0.2718
     40  CB         9.5070    8.3250   40.3800 C.3    42  ASN42       0.1169
     41  CG         8.2230    8.4890   41.1930 C.2    42  ASN42       0.2627
     42  OD1        8.0990    9.3860   42.0250 O.2    42  ASN42      -0.2716
     43  ND2        7.2740    7.5940   40.9650 N.am   42  ASN42      -0.0877
     44  N          9.1260   11.6280   40.2090 N.am   43  ALA43      -0.1966
     45  CA         8.4740   12.7820   39.6070 C.3    43  ALA43       0.1728
     46  C          9.4970   13.8140   39.1890 C.2    43  ALA43       0.2617
     47  O         10.5480   13.9560   39.8100 O.2    43  ALA43      -0.2715
     48  CB         7.5000   13.4160   40.6060 C.3    43  ALA43       0.0334
     49  N          9.1660   14.5380   38.1290 N.am   44  GLY44      -0.1940
     50  CA        10.0310   15.5870   37.6250 C.3    44  GLY44       0.2014
     51  C          9.0930   16.6880   37.1930 C.2    44  GLY44       0.2638
     52  O          8.4040   16.5470   36.1860 O.2    44  GLY44      -0.2714
     53  N          9.0480   17.7680   37.9630 N.am   45  HIS45      -0.1973
     54  CA         8.1540   18.8750   37.6640 C.3    45  HIS45       0.1656
     55  C          8.9540   20.1230   37.3710 C.2    45  HIS45       0.2291
     56  O          9.6960   20.6070   38.2300 O.2    45  HIS45      -0.2864
     57  CB         7.2080   19.1090   38.8470 C.3    45  HIS45       0.0771
     58  CG         6.3400   17.9290   39.1670 C.ar   45  HIS45       0.0820
     59  ND1        5.6160   17.8340   40.3340 N.ar   45  HIS45      -0.2267
     60  CD2        6.0850   16.7930   38.4750 C.ar   45  HIS45       0.1154
     61  CE1        4.9550   16.6900   40.3510 C.ar   45  HIS45       0.1986
     62  NE2        5.2230   16.0390   39.2350 N.ar   45  HIS45      -0.2212
     63  N         15.4130   -1.8020   42.9620 N.3   119  ASP119     -0.1239
     64  CA        14.6060   -1.3370   41.8380 C.3   119  ASP119      0.1674
     65  C         15.3790   -1.7320   40.5830 C.2   119  ASP119      0.2266
     66  O         14.8440   -2.3950   39.6890 O.2   119  ASP119     -0.2867
     67  CB        14.4260    0.1870   41.9110 C.3   119  ASP119      0.1410
     68  CG        13.3000    0.6900   41.0240 C.2   119  ASP119      0.3668
     69  OD1       12.6250   -0.1440   40.3870 O.co2 119  ASP119     -0.2456
     70  OD2       13.0890    1.9220   40.9710 O.co2 119  ASP119     -0.2456
     71  N          9.2140   -2.9560   33.3920 N.3   134  ILE134     -0.1231
     72  CA         8.2780   -1.8530   33.5350 C.3   134  ILE134      0.1692
     73  C          8.8300   -0.5250   33.0420 C.2   134  ILE134      0.2593
     74  O          8.0830    0.3230   32.5480 O.2   134  ILE134     -0.2718
     75  CB         7.8490   -1.7360   35.0070 C.3   134  ILE134      0.0266
     76  CG1        7.0080   -2.9620   35.3630 C.3   134  ILE134      0.0019
     77  CG2        7.1170   -0.4250   35.2500 C.3   134  ILE134      0.0020
     78  CD1        6.5740   -3.0230   36.7850 C.3   134  ILE134      0.0001
     79  N         10.1390   -0.3520   33.1680 N.am  135  GLY135     -0.1942
     80  CA        10.7540    0.8810   32.7370 C.3   135  GLY135      0.2014
     81  C         10.6270    1.9430   33.8060 C.2   135  GLY135      0.2640
     82  O         10.3600    3.1040   33.4990 O.2   135  GLY135     -0.2714
     83  N         10.8260    1.5500   35.0620 N.am  136  THR136     -0.1936
     84  CA        10.7380    2.4710   36.1980 C.3   136  THR136      0.2028
     85  C         11.8640    3.5040   36.1780 C.2   136  THR136      0.2643
     86  O         12.8350    3.3570   35.4480 O.2   136  THR136     -0.2714
     87  CB        10.8460    1.7190   37.5330 C.3   136  THR136      0.1808
     88  OG1       12.1990    1.2850   37.7110 O.3   136  THR136     -0.2208
     89  CG2        9.9310    0.5010   37.5450 C.3   136  THR136      0.0379
     90  N         11.7410    4.5420   36.9950 N.am  137  THR137     -0.1936
     91  CA        12.7740    5.5650   37.0580 C.3   137  THR137      0.2028
     92  C         13.9410    5.0430   37.8870 C.2   137  THR137      0.2642
     93  O         14.9230    5.7540   38.1130 O.2   137  THR137     -0.2714
     94  CB        12.2660    6.8690   37.7230 C.3   137  THR137      0.1808
     95  OG1       11.8030    6.5900   39.0540 O.3   137  THR137     -0.2208
     96  CG2       11.1400    7.4900   36.8970 C.3   137  THR137      0.0379
     97  N         13.8250    3.7960   38.3360 N.am  138  LYS138     -0.1977
     98  CA        14.8520    3.1640   39.1550 C.3   138  LYS138      0.1596
     99  C         15.2020    4.0360   40.3480 C.2   138  LYS138      0.2287
    100  O         16.3630    4.1610   40.7390 O.2   138  LYS138     -0.2864
    101  CB        16.0990    2.8730   38.3200 C.3   138  LYS138      0.0298
    102  CG        15.8770    1.7960   37.2800 C.3   138  LYS138      0.0038
    103  CD        17.1790    1.3490   36.6530 C.3   138  LYS138      0.0206
    104  CE        16.9630    0.0720   35.8560 C.3   138  LYS138      0.1093
    105  NZ        18.2420   -0.5840   35.4480 N.3   138  LYS138     -0.1314
    106  N         11.0380    3.4370   44.0330 N.3   141  ILE141     -0.1231
    107  CA         9.6800    3.7730   44.4570 C.3   141  ILE141      0.1692
    108  C          8.8330    2.5150   44.6660 C.2   141  ILE141      0.2592
    109  O          8.1850    2.3610   45.6990 O.2   141  ILE141     -0.2718
    110  CB         8.9800    4.6810   43.4180 C.3   141  ILE141      0.0266
    111  CG1        9.8040    5.9520   43.1870 C.3   141  ILE141      0.0019
    112  CG2        7.5710    5.0190   43.8920 C.3   141  ILE141      0.0020
    113  CD1       10.1100    6.7410   44.4450 C.3   141  ILE141      0.0001
    114  N          8.8310    1.6240   43.6790 N.am  142  GLY142     -0.1957
    115  CA         8.0690    0.3930   43.7990 C.3   142  GLY142      0.1869
    116  C          8.5030   -0.4260   45.0050 C.2   142  GLY142      0.2309
    117  O          7.6670   -0.8900   45.7780 O.2   142  GLY142     -0.2863
    118  N          3.0210   12.2510   39.0580 N.3   230  ASN230     -0.1240
    119  CA         2.6830   11.2230   38.0790 C.3   230  ASN230      0.1653
    120  C          1.3080   11.5520   37.4580 C.2   230  ASN230      0.2266
    121  O          1.0150   12.7220   37.1870 O.2   230  ASN230     -0.2867
    122  CB         2.6740    9.8350   38.7500 C.3   230  ASN230      0.1155
    123  CG         3.7730    9.6810   39.8060 C.2   230  ASN230      0.2627
    124  OD1        3.4900    9.4550   40.9880 O.2   230  ASN230     -0.2716
    125  ND2        5.0280    9.8150   39.3860 N.am  230  ASN230     -0.0877
    126  N         -1.2400    6.1200   35.4000 N.3   234  LEU234     -0.1245
    127  CA        -0.0430    5.5700   36.0340 C.3   234  LEU234      0.1561
    128  C         -0.4190    5.1370   37.4440 C.2   234  LEU234      0.2260
    129  O          0.4270    4.6620   38.2030 O.2   234  LEU234     -0.2867
    130  CB         1.0490    6.6340   36.1370 C.3   234  LEU234      0.0270
    131  CG         1.8540    7.0350   34.9030 C.3   234  LEU234      0.0019
    132  CD1        2.7920    8.1840   35.2810 C.3   234  LEU234      0.0001
    133  CD2        2.6400    5.8190   34.3880 C.3   234  LEU234      0.0001
    134  N          2.0060   -1.5830   34.3030 N.3   243  PHE243     -0.1227
    135  CA         2.8380   -0.4870   33.8100 C.3   243  PHE243      0.1736
    136  C          2.2960    0.8110   34.3600 C.2   243  PHE243      0.2595
    137  O          1.6970    1.6220   33.6550 O.2   243  PHE243     -0.2718
    138  CB         2.8360   -0.5090   32.2900 C.3   243  PHE243      0.0547
    139  CG         3.3090   -1.8160   31.7300 C.ar  243  PHE243     -0.0202
    140  CD1        4.6360   -2.2130   31.8980 C.ar  243  PHE243     -0.0042
    141  CD2        2.4180   -2.6850   31.1050 C.ar  243  PHE243     -0.0042
    142  CE1        5.0670   -3.4540   31.4580 C.ar  243  PHE243     -0.0003
    143  CE2        2.8370   -3.9320   30.6610 C.ar  243  PHE243     -0.0003
    144  CZ         4.1640   -4.3180   30.8380 C.ar  243  PHE243     -0.0000
    145  N          2.5380    0.9810   35.6500 N.am  244  VAL244     -0.1966
    146  CA         2.0660    2.1130   36.4130 C.3   244  VAL244      0.1727
    147  C          3.0990    2.3620   37.5100 C.2   244  VAL244      0.2617
    148  O          4.0830    1.6290   37.6150 O.2   244  VAL244     -0.2715
    149  CB         0.7140    1.7490   37.0860 C.3   244  VAL244      0.0290
    150  CG1       -0.3390    1.4330   36.0340 C.3   244  VAL244      0.0023
    151  CG2        0.9060    0.5300   37.9850 C.3   244  VAL244      0.0023
    152  N          2.8830    3.4030   38.3080 N.am  245  THR245     -0.1937
    153  CA         3.7600    3.6870   39.4210 C.3   245  THR245      0.2028
    154  C          3.0500    3.0290   40.6110 C.2   245  THR245      0.2642
    155  O          1.9030    2.5960   40.4800 O.2   245  THR245     -0.2714
    156  CB         3.9620    5.2000   39.6340 C.3   245  THR245      0.1808
    157  OG1        4.8730    5.3950   40.7250 O.3   245  THR245     -0.2208
    158  CG2        2.6390    5.9050   39.9130 C.3   245  THR245      0.0379
    159  N          3.7180    2.9420   41.7550 N.am  246  SER246     -0.1949
    160  CA         3.1510    2.2570   42.9200 C.3   246  SER246      0.1924
    161  C          2.3150    3.0450   43.9310 C.2   246  SER246      0.2314
    162  O          2.1950    2.6350   45.0820 O.2   246  SER246     -0.2863
    163  CB         4.2730    1.5370   43.6670 C.3   246  SER246      0.2116
    164  OG         4.8690    0.5660   42.8310 O.3   246  SER246     -0.2180
    165  N          4.2300    9.3080   26.9520 N.3   278  ARG278     -0.1231
    166  CA         4.3940    8.2410   27.9040 C.3   278  ARG278      0.1694
    167  C          5.8960    7.9430   27.9340 C.2   278  ARG278      0.2592
    168  O          6.5620    7.9470   26.8950 O.2   278  ARG278     -0.2718
    169  CB         3.5840    7.0140   27.4590 C.3   278  ARG278      0.0321
    170  CG         3.8940    5.7700   28.2630 C.3   278  ARG278      0.0489
    171  CD         2.7560    4.7680   28.3720 C.3   278  ARG278      0.2205
    172  NE         2.8760    4.1150   29.6750 N.pl3 278  ARG278     -0.0865
    173  CZ         2.0800    3.1590   30.1380 C.cat 278  ARG278      0.5346
    174  NH1        1.0730    2.7010   29.4080 N.pl3 278  ARG278      0.1354
    175  NH2        2.2770    2.6800   31.3580 N.pl3 278  ARG278      0.1354
    176  N          6.4470    7.7440   29.1250 N.am  279  VAL279     -0.1966
    177  CA         7.8620    7.4130   29.2390 C.3   279  VAL279      0.1727
    178  C          7.9540    6.1300   30.0730 C.2   279  VAL279      0.2617
    179  O          7.6260    6.1070   31.2630 O.2   279  VAL279     -0.2715
    180  CB         8.6810    8.5860   29.8550 C.3   279  VAL279      0.0290
    181  CG1        8.2070    8.9000   31.2370 C.3   279  VAL279      0.0023
    182  CG2       10.1610    8.2370   29.8480 C.3   279  VAL279      0.0023
    183  N          8.3650    5.0530   29.4100 N.am  280  GLY280     -0.1940
    184  CA         8.4630    3.7560   30.0500 C.3   280  GLY280      0.2014
    185  C          7.6910    2.7570   29.2020 C.2   280  GLY280      0.2638
    186  O          7.1530    3.1220   28.1520 O.2   280  GLY280     -0.2714
    187  N          7.6170    1.5070   29.6580 N.am  281  ILE281     -0.1977
    188  CA         6.9250    0.4420   28.9360 C.3   281  ILE281      0.1596
    189  C          5.4050    0.4540   29.1270 C.2   281  ILE281      0.2287
    190  O          4.9050    0.9600   30.1240 O.2   281  ILE281     -0.2864
    191  CB         7.4860   -0.9320   29.3800 C.3   281  ILE281      0.0276
    192  CG1        8.9930   -0.9580   29.1420 C.3   281  ILE281      0.0022
    193  CG2        6.8020   -2.0670   28.6440 C.3   281  ILE281      0.0022
    194  CD1        9.4030   -0.5280   27.7310 C.3   281  ILE281      0.0001
    195  N         15.3230   10.1790   29.8620 N.3   309  ARG309     -0.1245
    196  CA        14.7680    9.3060   28.8360 C.3   309  ARG309      0.1563
    197  C         13.8490   10.0420   27.8590 C.2   309  ARG309      0.2260
    198  O         13.0300   10.8810   28.2460 O.2   309  ARG309     -0.2867
    199  CB        13.9710    8.1630   29.4680 C.3   309  ARG309      0.0307
    200  CG        14.7970    7.0820   30.1180 C.3   309  ARG309      0.0489
    201  CD        13.8860    5.9850   30.6470 C.3   309  ARG309      0.2205
    202  NE        12.9930    6.4590   31.7060 N.pl3 309  ARG309     -0.0865
    203  CZ        12.0210    5.7290   32.2490 C.cat 309  ARG309      0.5346
    204  NH1       11.8040    4.4840   31.8320 N.pl3 309  ARG309      0.1354
    205  NH2       11.2740    6.2380   33.2180 N.pl3 309  ARG309      0.1354
@<TRIPOS>BOND
     1   168   167    2
     2   165   166    1
     3    13    14   ar
     4    13    11   ar
     5    14    12   ar
     6   169   166    1
     7   169   170    1
     8   194   192    1
     9   197   198    2
    10   197   196    1
    11   166   167    1
    12   167   176   am
    13    11     8   ar
    14   186   185    2
    15   170   171    1
    16   171   172    1
    17    12    10   ar
    18   193   191    1
    19   196   199    1
    20   196   195    1
    21   188   189    1
    22   188   191    1
    23   188   187    1
    24   176   177    1
    25   189   190    2
    26   192   191    1
    27   185   187   am
    28   185   184    1
    29   177   180    1
    30   177   178    1
    31     8    10   ar
    32     8     6   ar
    33   174   173    1
    34   183   184    1
    35   183   178   am
    36   199   200    1
    37    10     9   ar
    38   172   173    2
    39   182   180    1
    40   180   181    1
    41   178   179    2
    42   200   201    1
    43   173   175    1
    44     6     5    1
    45     6     7   ar
    46    22    21    2
    47   201   202    1
    48   143   144   ar
    49   143   141   ar
    50     5     2    1
    51   144   142   ar
    52     9     7   ar
    53   141   139   ar
    54     1     2    1
    55    18    17    2
    56   142   140   ar
    57    23    24    1
    58    23    20    1
    59    21    20    1
    60   202   203    2
    61   139   140   ar
    62   139   138    1
    63     2     3    1
    64   204   203    1
    65    26    24   ar
    66     4     3    2
    67   203   205    1
    68   138   135    1
    69    24    25   ar
    70     3    15   am
    71    20    19    1
    72    74    73    2
    73    17    19   am
    74    17    16    1
    75    80    79    1
    76    80    81    1
    77    15    16    1
    78    73    79   am
    79    73    72    1
    80    71    72    1
    81    82    81    2
    82    72    75    1
    83   137   136    2
    84    81    83   am
    85   135   134    1
    86   135   136    1
    87   136   145   am
    88   133   131    1
    89   131   132    1
    90   131   130    1
    91    75    77    1
    92    75    76    1
    93    83    84    1
    94    27    28    1
    95    76    78    1
    96   126   127    1
    97    86    85    2
    98   105   104    1
    99   145   146    1
   100   104   103    1
   101   150   149    1
   102   127   130    1
   103   127   128    1
   104    85    84    1
   105    85    90   am
   106    52    51    2
   107    84    87    1
   108    35    34    1
   109   146   149    1
   110   146   147    1
   111   103   102    1
   112    28    29    1
   113    28    31    1
   114    96    94    1
   115    32    31    1
   116    32    33    1
   117    90    91    1
   118    91    94    1
   119    91    92    1
   120   149   151    1
   121   121   120    2
   122    51    50    1
   123    51    53   am
   124   102   101    1
   125    55    54    1
   126    55    56    2
   127    29    30    2
   128   128   129    2
   129   120   119    1
   130   147   148    2
   131   147   152   am
   132    87    89    1
   133    87    88    1
   134    34    33    1
   135    50    49    1
   136    54    53    1
   137    54    57    1
   138    94    95    1
   139    92    93    2
   140    92    97   am
   141   119   122    1
   142   119   118    1
   143    49    46   am
   144    39    38    2
   145   152   153    1
   146   101    98    1
   147    97    98    1
   148    60    58   ar
   149    60    62   ar
   150   122   123    1
   151    57    58    1
   152    98    99    1
   153    58    59   ar
   154    46    45    1
   155    46    47    2
   156    62    61   ar
   157   125   123   am
   158   153   156    1
   159   153   154    1
   160    38    44   am
   161    38    37    1
   162    45    44    1
   163    45    48    1
   164   156   158    1
   165   156   157    1
   166    66    65    2
   167   123   124    2
   168    59    61   ar
   169    99   100    2
   170    37    40    1
   171    37    36    1
   172    40    41    1
   173    69    68   ar
   174   155   154    2
   175    65    64    1
   176   154   159   am
   177    43    41   am
   178    70    68   ar
   179    68    67    1
   180    41    42    2
   181   159   160    1
   182    64    67    1
   183    64    63    1
   184   164   163    1
   185   160   163    1
   186   160   161    1
   187   111   110    1
   188   111   113    1
   189   110   112    1
   190   110   107    1
   191   114   115    1
   192   114   108   am
   193   115   116    1
   194   161   162    2
   195   106   107    1
   196   107   108    1
   197   108   109    2
   198   116   117    2
