@<TRIPOS>MOLECULE
tmp/1looA00.pdb
 152 144 0 0 0
SMALL
GASTEIGER

@<TRIPOS>ATOM
      1  N         65.0700   59.4050   33.7610 N.3    16  GLY16      -0.1210
      2  CA        64.0290   58.6270   34.4090 C.3    16  GLY16       0.1956
      3  C         63.4030   57.5890   33.4980 C.2    16  GLY16       0.2612
      4  O         63.6660   57.5620   32.2900 O.2    16  GLY16      -0.2717
      5  N         62.5750   56.7260   34.0800 N.am   17  ASP17      -0.1959
      6  CA        61.8910   55.6760   33.3300 C.3    17  ASP17       0.1840
      7  C         62.8920   54.7310   32.6650 C.2    17  ASP17       0.2622
      8  O         62.5960   54.1200   31.6270 O.2    17  ASP17      -0.2715
      9  CB        60.9730   56.3110   32.2720 C.3    17  ASP17       0.1450
     10  CG        60.0750   57.3870   32.8570 C.2    17  ASP17       0.3671
     11  OD1       59.3830   57.0890   33.8490 O.co2  17  ASP17      -0.2456
     12  OD2       60.0620   58.5230   32.3390 O.co2  17  ASP17      -0.2456
     13  N         64.0710   54.6060   33.2680 N.am   18  GLU18      -0.1963
     14  CA        65.1080   53.7400   32.7220 C.3    18  GLU18       0.1733
     15  C         64.8190   52.2720   32.9920 C.2    18  GLU18       0.2617
     16  O         65.1980   51.4020   32.2110 O.2    18  GLU18      -0.2715
     17  CB        66.4840   54.0940   33.3100 C.3    18  GLU18       0.0429
     18  CG        66.9720   55.5040   32.9880 C.3    18  GLU18       0.1163
     19  CD        66.5820   56.5140   34.0550 C.2    18  GLU18       0.3649
     20  OE1       65.7410   56.1780   34.9140 O.co2  18  GLU18      -0.2457
     21  OE2       67.1140   57.6420   34.0350 O.co2  18  GLU18      -0.2457
     22  N         64.1480   52.0100   34.1060 N.am   19  GLY19      -0.1940
     23  CA        63.8290   50.6500   34.4890 C.3    19  GLY19       0.2014
     24  C         64.4660   50.2950   35.8220 C.2    19  GLY19       0.2639
     25  O         64.8110   49.1390   36.0570 O.2    19  GLY19      -0.2714
     26  N         64.6290   51.2950   36.6870 N.am   20  LYS20      -0.1963
     27  CA        65.2260   51.1130   38.0100 C.3    20  LYS20       0.1728
     28  C         64.4550   50.1020   38.8400 C.2    20  LYS20       0.2617
     29  O         65.0410   49.2360   39.4890 O.2    20  LYS20      -0.2715
     30  CB        65.2470   52.4380   38.7840 C.3    20  LYS20       0.0311
     31  CG        66.2270   53.4690   38.2800 C.3    20  LYS20       0.0038
     32  CD        66.2280   54.6990   39.1820 C.3    20  LYS20       0.0206
     33  CE        64.8950   55.4210   39.1230 C.3    20  LYS20       0.1093
     34  NZ        64.5900   55.8690   37.7350 N.3    20  LYS20      -0.1314
     35  N         63.1340   50.2410   38.8200 N.am   21  GLY21      -0.1940
     36  CA        62.2760   49.3550   39.5770 C.3    21  GLY21       0.2014
     37  C         62.5650   47.8910   39.3410 C.2    21  GLY21       0.2638
     38  O         62.4510   47.0770   40.2540 O.2    21  GLY21      -0.2714
     39  N         62.9480   47.5440   38.1210 N.am   22  LYS22      -0.1977
     40  CA        63.2300   46.1520   37.8160 C.3    22  LYS22       0.1596
     41  C         64.5230   45.7400   38.4970 C.2    22  LYS22       0.2287
     42  O         64.6460   44.6260   39.0040 O.2    22  LYS22      -0.2864
     43  CB        63.3530   45.9540   36.3060 C.3    22  LYS22       0.0298
     44  CG        63.3380   44.5060   35.8640 C.3    22  LYS22       0.0038
     45  CD        63.6230   44.3940   34.3720 C.3    22  LYS22       0.0206
     46  CE        63.5080   42.9520   33.8940 C.3    22  LYS22       0.1093
     47  NZ        64.0500   42.7940   32.5210 N.3    22  LYS22      -0.1314
     48  N         57.4590   59.4950   42.1680 N.3    43  ALA43      -0.1231
     49  CA        56.8580   58.8190   41.0260 C.3    43  ALA43       0.1694
     50  C         56.3400   57.4610   41.5020 C.2    43  ALA43       0.2593
     51  O         56.8170   56.9310   42.5070 O.2    43  ALA43      -0.2718
     52  CB        57.8980   58.6390   39.9220 C.3    43  ALA43       0.0304
     53  N         55.3710   56.8990   40.7850 N.am   44  GLY44      -0.1942
     54  CA        54.8140   55.6180   41.1850 C.3    44  GLY44       0.2014
     55  C         55.5980   54.3840   40.7730 C.2    44  GLY44       0.2639
     56  O         56.3960   54.4170   39.8340 O.2    44  GLY44      -0.2714
     57  N         55.3720   53.2860   41.4870 N.am   45  HIS45      -0.1959
     58  CA        56.0430   52.0280   41.1820 C.3    45  HIS45       0.1787
     59  C         55.1270   50.8320   41.4070 C.2    45  HIS45       0.2620
     60  O         54.6080   50.6340   42.5050 O.2    45  HIS45      -0.2715
     61  CB        57.3020   51.8690   42.0290 C.3    45  HIS45       0.0785
     62  CG        57.9490   50.5260   41.8890 C.ar   45  HIS45       0.0821
     63  ND1       58.1610   49.9280   40.6660 N.ar   45  HIS45      -0.2267
     64  CD2       58.4370   49.6690   42.8180 C.ar   45  HIS45       0.1154
     65  CE1       58.7530   48.7590   40.8470 C.ar   45  HIS45       0.1986
     66  NE2       58.9320   48.5790   42.1430 N.ar   45  HIS45      -0.2212
     67  N         54.9440   50.0350   40.3590 N.am   46  THR46      -0.1951
     68  CA        54.0920   48.8550   40.4190 C.3    46  THR46       0.1897
     69  C         54.8850   47.5670   40.6370 C.2    46  THR46       0.2313
     70  O         55.8730   47.3110   39.9490 O.2    46  THR46      -0.2863
     71  CB        53.2660   48.7200   39.1270 C.3    46  THR46       0.1794
     72  OG1       52.2790   49.7570   39.0860 O.3    46  THR46      -0.2208
     73  CG2       52.5810   47.3700   39.0660 C.3    46  THR46       0.0378
     74  N         63.9930   59.0050   40.8650 N.3   230  ASN230     -0.1240
     75  CA        64.1620   59.5900   39.5430 C.3   230  ASN230      0.1653
     76  C         65.4830   59.2750   38.8510 C.2   230  ASN230      0.2266
     77  O         65.8440   58.1120   38.7160 O.2   230  ASN230     -0.2867
     78  CB        63.9500   61.0970   39.6580 C.3   230  ASN230      0.1155
     79  CG        62.5910   61.4300   40.2410 C.2   230  ASN230      0.2627
     80  OD1       62.4800   62.0260   41.3170 O.2   230  ASN230     -0.2716
     81  ND2       61.5430   61.0250   39.5380 N.am  230  ASN230     -0.0877
     82  N         57.2790   50.4910   20.7640 N.3   299  ARG299     -0.1245
     83  CA        57.8620   49.2370   21.2290 C.3   299  ARG299      0.1563
     84  C         58.2720   49.3120   22.6890 C.2   299  ARG299      0.2260
     85  O         58.3220   48.2990   23.3860 O.2   299  ARG299     -0.2867
     86  CB        59.0820   48.8640   20.3790 C.3   299  ARG299      0.0307
     87  CG        58.7420   48.3060   19.0080 C.3   299  ARG299      0.0489
     88  CD        60.0040   48.0320   18.1820 C.3   299  ARG299      0.2205
     89  NE        60.8620   47.0240   18.7920 N.pl3 299  ARG299     -0.0865
     90  CZ        60.5550   45.7330   18.8900 C.cat 299  ARG299      0.5346
     91  NH1       61.3990   44.8910   19.4670 N.pl3 299  ARG299      0.1354
     92  NH2       59.4100   45.2800   18.3980 N.pl3 299  ARG299      0.1354
     93  N         56.0880   59.9740   25.8440 N.3   311  ARG311     -0.1245
     94  CA        57.3610   60.5390   26.2450 C.3   311  ARG311      0.1563
     95  C         58.2110   60.7490   24.9980 C.2   311  ARG311      0.2260
     96  O         58.0900   60.0090   24.0240 O.2   311  ARG311     -0.2867
     97  CB        58.0660   59.5970   27.2260 C.3   311  ARG311      0.0307
     98  CG        57.3190   59.4190   28.5370 C.3   311  ARG311      0.0489
     99  CD        58.2080   58.8440   29.6260 C.3   311  ARG311      0.2205
    100  NE        58.3380   57.3960   29.5390 N.pl3 311  ARG311     -0.0865
    101  CZ        57.6200   56.5360   30.2540 C.cat 311  ARG311      0.5346
    102  NH1       56.7180   56.9780   31.1140 N.pl3 311  ARG311      0.1354
    103  NH2       57.8170   55.2340   30.1160 N.pl3 311  ARG311      0.1354
    104  N         69.0320   48.4270   30.0570 N.3   336  THR336     -0.1203
    105  CA        67.6640   47.9390   29.8870 C.3   336  THR336      0.1994
    106  C         67.0100   48.2270   28.5450 C.2   336  THR336      0.2617
    107  O         67.4210   49.1270   27.8040 O.2   336  THR336     -0.2717
    108  CB        66.7520   48.5470   30.9490 C.3   336  THR336      0.1784
    109  OG1       66.6680   49.9650   30.7310 O.3   336  THR336     -0.2211
    110  CG2       67.3080   48.2810   32.3550 C.3   336  THR336      0.0376
    111  N         65.9660   47.4550   28.2570 N.am  337  LYS337     -0.1979
    112  CA        65.1850   47.6080   27.0350 C.3   337  LYS337      0.1596
    113  C         65.9660   47.3600   25.7420 C.2   337  LYS337      0.2287
    114  O         65.6350   47.9000   24.6820 O.2   337  LYS337     -0.2864
    115  CB        64.5440   49.0040   27.0000 C.3   337  LYS337      0.0298
    116  CG        63.6250   49.2930   28.1850 C.3   337  LYS337      0.0038
    117  CD        62.3960   50.1210   27.7670 C.3   337  LYS337      0.0206
    118  CE        61.5180   50.4540   28.9740 C.3   337  LYS337      0.1093
    119  NZ        60.2730   51.1850   28.6250 N.3   337  LYS337     -0.1314
    120  N         65.8500   44.8780   24.0570 N.3   339  ASP339     -0.1225
    121  CA        64.8860   44.2340   23.1780 C.3   339  ASP339      0.1805
    122  C         64.1040   45.1960   22.3150 C.2   339  ASP339      0.2597
    123  O         63.6910   44.8410   21.2140 O.2   339  ASP339     -0.2718
    124  CB        63.9310   43.3470   23.9850 C.3   339  ASP339      0.1424
    125  CG        63.2360   44.0940   25.1070 C.2   339  ASP339      0.3668
    126  OD1       61.9910   44.2300   25.0450 O.co2 339  ASP339     -0.2456
    127  OD2       63.9280   44.5420   26.0500 O.co2 339  ASP339     -0.2456
    128  N         63.9080   46.4210   22.7860 N.am  340  ILE340     -0.1980
    129  CA        63.1790   47.3880   21.9720 C.3   340  ILE340      0.1595
    130  C         63.8830   47.5820   20.6240 C.2   340  ILE340      0.2287
    131  O         63.2410   47.8570   19.6150 O.2   340  ILE340     -0.2864
    132  CB        63.0590   48.7670   22.6950 C.3   340  ILE340      0.0276
    133  CG1       61.7910   48.8120   23.5610 C.3   340  ILE340      0.0022
    134  CG2       62.9730   49.8920   21.6850 C.3   340  ILE340      0.0022
    135  CD1       61.6980   47.7420   24.6200 C.3   340  ILE340      0.0001
    136  N         68.8120   43.9790   30.1740 N.3   419  GLY419     -0.1225
    137  CA        67.3810   43.7160   30.2070 C.3   419  GLY419      0.1811
    138  C         66.7960   43.4400   28.8310 C.2   419  GLY419      0.2280
    139  O         66.9360   44.2440   27.9150 O.2   419  GLY419     -0.2866
    140  N         63.3840   42.3520   28.5050 N.3   421  GLY421     -0.1210
    141  CA        61.9470   42.1940   28.6630 C.3   421  GLY421      0.1956
    142  C         61.4140   42.7080   29.9850 C.2   421  GLY421      0.2611
    143  O         62.1740   43.1800   30.8270 O.2   421  GLY421     -0.2717
    144  N         60.1020   42.6080   30.1770 N.am  422  LYS422     -0.1979
    145  CA        59.4740   43.0700   31.4120 C.3   422  LYS422      0.1596
    146  C         59.6090   42.0860   32.5770 C.2   422  LYS422      0.2287
    147  O         59.8710   42.4950   33.7080 O.2   422  LYS422     -0.2864
    148  CB        57.9910   43.3710   31.1690 C.3   422  LYS422      0.0298
    149  CG        57.7390   44.4550   30.1370 C.3   422  LYS422      0.0038
    150  CD        56.2740   44.8610   30.1070 C.3   422  LYS422      0.0206
    151  CE        55.3760   43.6920   29.6990 C.3   422  LYS422      0.1093
    152  NZ        55.6440   43.2110   28.3020 N.3   422  LYS422     -0.1314
@<TRIPOS>BOND
     1    88    89    1
     2    88    87    1
     3    92    90    1
     4    89    90    2
     5    90    91    1
     6    87    86    1
     7   131   130    2
     8    86    83    1
     9   130   129    1
    10    82    83    1
    11   123   122    2
    12    83    84    1
    13   134   132    1
    14   129   132    1
    15   129   128    1
    16   122   128   am
    17   122   121    1
    18    84    85    2
    19   132   133    1
    20   121   124    1
    21   121   120    1
    22   133   135    1
    23   124   125    1
    24    96    95    2
    25   114   113    2
    26    95    94    1
    27   126   125   ar
    28   125   127   ar
    29   113   112    1
    30    93    94    1
    31    94    97    1
    32   115   112    1
    33   115   116    1
    34   112   111    1
    35    97    98    1
    36   117   116    1
    37   117   118    1
    38   107   106    2
    39   139   138    2
    40   111   106   am
    41   152   151    1
    42   140   141    1
    43    98    99    1
    44   106   105    1
    45   119   118    1
    46   141   142    1
    47   138   137    1
    48   100    99    1
    49   100   101    2
    50   151   150    1
    51   105   104    1
    52   105   108    1
    53   142   144   am
    54   142   143    2
    55   150   149    1
    56   103   101    1
    57   149   148    1
    58   136   137    1
    59   144   145    1
    60   101   102    1
    61   109   108    1
    62   108   110    1
    63   148   145    1
    64   145   146    1
    65     8     7    2
    66    16    15    2
    67     9    10    1
    68     9     6    1
    69     4     3    2
    70    12    10   ar
    71    47    46    1
    72   146   147    2
    73     7    13   am
    74     7     6    1
    75    14    15    1
    76    14    13    1
    77    14    17    1
    78    10    11   ar
    79    18    17    1
    80    18    19    1
    81    15    22   am
    82     6     5    1
    83     3     5   am
    84     3     2    1
    85     1     2    1
    86    46    45    1
    87    21    19   ar
    88    19    20   ar
    89    22    23    1
    90    45    44    1
    91    23    24    1
    92    24    25    2
    93    24    26   am
    94    44    43    1
    95    43    40    1
    96    26    27    1
    97    34    33    1
    98    40    39    1
    99    40    41    1
   100    27    30    1
   101    27    28    1
   102    39    37   am
   103    31    30    1
   104    31    32    1
   105    41    42    2
   106    77    76    2
   107    35    28   am
   108    35    36    1
   109    28    29    2
   110    76    75    1
   111    73    71    1
   112    72    71    1
   113    33    32    1
   114    71    68    1
   115    37    36    1
   116    37    38    2
   117    81    79   am
   118    75    78    1
   119    75    74    1
   120    78    79    1
   121    56    55    2
   122    52    49    1
   123    70    69    2
   124    79    80    2
   125    67    68    1
   126    67    59   am
   127    68    69    1
   128    63    65   ar
   129    63    62   ar
   130    55    54    1
   131    55    57   am
   132    53    54    1
   133    53    50   am
   134    65    66   ar
   135    49    50    1
   136    49    48    1
   137    58    59    1
   138    58    57    1
   139    58    61    1
   140    59    60    2
   141    50    51    2
   142    62    61    1
   143    62    64   ar
   144    66    64   ar
