@<TRIPOS>MOLECULE
tmp/1lopA00.pdb
 129 124 0 0 0
SMALL
GASTEIGER

@<TRIPOS>ATOM
      1  N        -13.6860   21.9870   14.7030 N.3    43  ARG43      -0.1245
      2  CA       -14.4880   22.6160   13.6660 C.3    43  ARG43       0.1563
      3  C        -13.7390   22.5690   12.3200 C.2    43  ARG43       0.2260
      4  O        -12.6280   23.0810   12.1540 O.2    43  ARG43      -0.2867
      5  CB       -14.8150   24.0650   14.1330 C.3    43  ARG43       0.0307
      6  CG       -15.8050   24.7090   13.1840 C.3    43  ARG43       0.0489
      7  CD       -16.6400   25.8440   13.7440 C.3    43  ARG43       0.2205
      8  NE       -15.8930   27.0290   13.8210 N.pl3  43  ARG43      -0.0865
      9  CZ       -16.2910   28.1870   13.3560 C.cat  43  ARG43       0.5346
     10  NH1      -17.3720   28.3940   12.6490 N.pl3  43  ARG43       0.1354
     11  NH2      -15.4640   29.2230   13.4540 N.pl3  43  ARG43       0.1354
     12  N        -14.3730   23.0370    8.2330 N.3    45  ILE45      -0.1245
     13  CA       -15.2190   23.5320    7.1490 C.3    45  ILE45       0.1561
     14  C        -14.3620   23.6510    5.8900 C.2    45  ILE45       0.2260
     15  O        -13.5380   24.5630    5.7070 O.2    45  ILE45      -0.2867
     16  CB       -15.8450   24.9300    7.5020 C.3    45  ILE45       0.0252
     17  CG1      -16.5860   24.9300    8.8390 C.3    45  ILE45       0.0019
     18  CG2      -16.8090   25.2800    6.3790 C.3    45  ILE45       0.0019
     19  CD1      -17.0470   26.3070    9.3680 C.3    45  ILE45       0.0001
     20  N        -12.8250   26.6970    3.6850 N.3    48  PHE48      -0.1227
     21  CA       -12.7710   27.8500    4.5750 C.3    48  PHE48       0.1736
     22  C        -11.5910   27.6990    5.5290 C.2    48  PHE48       0.2595
     23  O        -10.5300   28.2660    5.2900 O.2    48  PHE48      -0.2718
     24  CB       -14.1180   27.9420    5.3360 C.3    48  PHE48       0.0547
     25  CG       -14.2960   29.0590    6.3770 C.ar   48  PHE48      -0.0202
     26  CD1      -13.5300   30.2190    6.3530 C.ar   48  PHE48      -0.0042
     27  CD2      -15.2520   28.8900    7.3560 C.ar   48  PHE48      -0.0042
     28  CE1      -13.6950   31.2050    7.3030 C.ar   48  PHE48      -0.0003
     29  CE2      -15.4190   29.8800    8.3070 C.ar   48  PHE48      -0.0003
     30  CZ       -14.6380   31.0330    8.2890 C.ar   48  PHE48      -0.0000
     31  N        -11.7000   26.8550    6.5600 N.am   49  MET49      -0.1979
     32  CA       -10.6450   26.6920    7.5620 C.3    49  MET49       0.1605
     33  C        -10.8240   25.4660    8.4530 C.2    49  MET49       0.2287
     34  O        -11.8270   24.7560    8.3990 O.2    49  MET49      -0.2864
     35  CB       -10.5670   27.9460    8.4690 C.3    49  MET49       0.0413
     36  CG       -11.8610   28.3740    9.1740 C.3    49  MET49       0.0598
     37  SD       -12.3240   27.4790   10.6760 S.3    49  MET49      -0.1393
     38  CE       -12.8360   28.8700   11.6100 C.3    49  MET49       0.0692
     39  N        -10.3020   24.4890   12.6250 N.3    51  GLN51      -0.1245
     40  CA       -10.1180   25.1270   13.9160 C.3    51  GLN51       0.1566
     41  C         -9.9350   24.1500   15.0680 C.2    51  GLN51       0.2260
     42  O        -10.6110   23.1270   15.1860 O.2    51  GLN51      -0.2867
     43  CB       -11.3180   26.0250   14.1820 C.3    51  GLN51       0.0367
     44  CG       -11.3720   26.7520   15.5220 C.3    51  GLN51       0.0905
     45  CD       -12.5390   27.7170   15.6660 C.2    51  GLN51       0.2608
     46  OE1      -13.1530   28.1370   14.7100 O.2    51  GLN51      -0.2717
     47  NE2      -12.9860   28.1490   16.8100 N.am   51  GLN51      -0.0878
     48  N         -9.0840   32.5160   16.7540 N.3    86  ALA86      -0.1231
     49  CA       -10.5300   32.5420   16.8300 C.3    86  ALA86       0.1694
     50  C        -10.8640   33.3060   18.1080 C.2    86  ALA86       0.2592
     51  O        -10.0210   33.5340   18.9880 O.2    86  ALA86      -0.2718
     52  CB       -11.1200   31.1460   16.9400 C.3    86  ALA86       0.0304
     53  N        -12.0990   33.7610   18.2360 N.am   87  ARG87      -0.1966
     54  CA       -12.4910   34.5510   19.4010 C.3    87  ARG87       0.1729
     55  C        -14.0170   34.6080   19.5330 C.2    87  ARG87       0.2617
     56  O        -14.7320   33.8380   18.8840 O.2    87  ARG87      -0.2715
     57  CB       -11.9020   35.9700   19.2570 C.3    87  ARG87       0.0348
     58  CG       -12.2820   36.6790   17.9870 C.3    87  ARG87       0.0492
     59  CD       -11.6610   38.0540   18.0030 C.3    87  ARG87       0.2205
     60  NE       -11.8790   38.8320   16.7790 N.pl3  87  ARG87      -0.0865
     61  CZ       -12.9980   39.5250   16.5050 C.cat  87  ARG87       0.5346
     62  NH1      -14.1020   39.4260   17.2440 N.pl3  87  ARG87       0.1354
     63  NH2      -13.0460   40.3010   15.4200 N.pl3  87  ARG87       0.1354
     64  N        -14.6000   35.4270   20.3900 N.am   88  THR88      -0.1937
     65  CA       -16.0550   35.5590   20.3930 C.3    88  THR88       0.2028
     66  C        -16.4330   36.8100   19.5980 C.2    88  THR88       0.2642
     67  O        -15.6190   37.3080   18.8170 O.2    88  THR88      -0.2714
     68  CB       -16.5950   35.6680   21.8270 C.3    88  THR88       0.1808
     69  OG1      -16.2860   36.9550   22.3330 O.3    88  THR88      -0.2208
     70  CG2      -16.0000   34.5860   22.7080 C.3    88  THR88       0.0379
     71  N        -17.6190   37.3950   19.7000 N.am   89  GLN89      -0.1976
     72  CA       -17.9000   38.5960   18.9390 C.3    89  GLN89       0.1601
     73  C        -17.2650   39.8610   19.5110 C.2    89  GLN89       0.2287
     74  O        -17.2130   40.9060   18.8590 O.2    89  GLN89      -0.2864
     75  CB       -19.4020   38.6850   18.8340 C.3    89  GLN89       0.0394
     76  CG       -19.7610   37.6000   17.8200 C.3    89  GLN89       0.0908
     77  CD       -21.2220   37.1970   17.7530 C.2    89  GLN89       0.2608
     78  OE1      -22.0610   37.9010   17.2050 O.2    89  GLN89      -0.2717
     79  NE2      -21.6300   36.0610   18.2740 N.am   89  GLN89      -0.0878
     80  N         -7.3370   28.9350   14.1970 N.3    99  PHE99      -0.1241
     81  CA        -7.7500   28.2290   12.9970 C.3    99  PHE99       0.1605
     82  C         -6.6940   28.4040   11.9130 C.2    99  PHE99       0.2264
     83  O         -5.9160   29.3690   11.8740 O.2    99  PHE99      -0.2867
     84  CB        -9.0890   28.7530   12.4910 C.3    99  PHE99       0.0534
     85  CG        -9.2090   30.2410   12.1960 C.ar   99  PHE99      -0.0203
     86  CD1       -9.5730   31.1280   13.2000 C.ar   99  PHE99      -0.0042
     87  CD2       -8.9990   30.7030   10.9050 C.ar   99  PHE99      -0.0042
     88  CE1       -9.7300   32.4710   12.9080 C.ar   99  PHE99      -0.0003
     89  CE2       -9.1570   32.0450   10.6250 C.ar   99  PHE99      -0.0003
     90  CZ        -9.5240   32.9280   11.6250 C.ar   99  PHE99      -0.0000
     91  N        -11.9850   38.2740    3.5280 N.3   107  PHE107     -0.1227
     92  CA       -13.0420   38.8010    4.3860 C.3   107  PHE107      0.1736
     93  C        -12.7300   38.8140    5.8840 C.2   107  PHE107      0.2595
     94  O        -13.3990   39.4990    6.6440 O.2   107  PHE107     -0.2718
     95  CB       -14.3650   38.0090    4.1450 C.3   107  PHE107      0.0547
     96  CG       -14.3630   36.4950    4.3940 C.ar  107  PHE107     -0.0202
     97  CD1      -13.8630   35.6320    3.4370 C.ar  107  PHE107     -0.0042
     98  CD2      -14.8450   35.9770    5.5780 C.ar  107  PHE107     -0.0042
     99  CE1      -13.8410   34.2770    3.6620 C.ar  107  PHE107     -0.0003
    100  CE2      -14.8140   34.6140    5.7930 C.ar  107  PHE107     -0.0003
    101  CZ       -14.3150   33.7690    4.8410 C.ar  107  PHE107     -0.0000
    102  N        -11.7360   38.0320    6.3410 N.am  108  LEU108     -0.1980
    103  CA       -11.3190   37.9750    7.7400 C.3   108  LEU108      0.1596
    104  C        -10.2690   38.9890    8.1660 C.2   108  LEU108      0.2287
    105  O         -9.8850   39.0820    9.3390 O.2   108  LEU108     -0.2864
    106  CB       -10.7760   36.5850    8.0620 C.3   108  LEU108      0.0297
    107  CG       -11.6850   35.3680    7.8880 C.3   108  LEU108      0.0022
    108  CD1      -10.9000   34.1160    8.2200 C.3   108  LEU108      0.0001
    109  CD2      -12.9220   35.5000    8.7710 C.3   108  LEU108      0.0001
    110  N         -9.6180   39.1170   12.2850 N.3   120  TYR120     -0.1241
    111  CA        -8.9510   38.0280   12.9970 C.3   120  TYR120      0.1605
    112  C         -7.4490   38.1050   12.8250 C.2   120  TYR120      0.2264
    113  O         -6.8930   38.2080   11.7250 O.2   120  TYR120     -0.2867
    114  CB        -9.5170   36.6960   12.4820 C.3   120  TYR120      0.0534
    115  CG       -11.0170   36.6500   12.7700 C.ar  120  TYR120     -0.0201
    116  CD1      -11.4840   36.2070   13.9930 C.ar  120  TYR120     -0.0009
    117  CD2      -11.8810   37.1950   11.8380 C.ar  120  TYR120     -0.0009
    118  CE1      -12.8300   36.3210   14.2900 C.ar  120  TYR120      0.0417
    119  CE2      -13.2160   37.3190   12.1250 C.ar  120  TYR120      0.0417
    120  CZ       -13.6770   36.8810   13.3500 C.ar  120  TYR120      0.1957
    121  OH       -15.0110   37.0940   13.6590 O.3   120  TYR120     -0.2866
    122  N        -20.1450   20.9880   12.3520 N.3   149  ASP149     -0.1239
    123  CA       -18.9050   20.7250   11.6110 C.3   149  ASP149      0.1674
    124  C        -17.7680   20.1220   12.4570 C.2   149  ASP149      0.2266
    125  O        -16.5780   20.3760   12.2850 O.2   149  ASP149     -0.2867
    126  CB       -18.4240   22.0240   10.9310 C.3   149  ASP149      0.1410
    127  CG       -19.4640   22.7240   10.0490 C.2   149  ASP149      0.3668
    128  OD1      -19.8600   22.1670    9.0170 O.co2 149  ASP149     -0.2456
    129  OD2      -19.8810   23.8290   10.4050 O.co2 149  ASP149     -0.2456
@<TRIPOS>BOND
     1    97    99   ar
     2    97    96   ar
     3    91    92    1
     4    99   101   ar
     5    20    21    1
     6    95    92    1
     7    95    96    1
     8    92    93    1
     9    96    98   ar
    10    21    24    1
    11    21    22    1
    12   101   100   ar
    13    23    22    2
    14    24    25    1
    15    22    31   am
    16    98   100   ar
    17    15    14    2
    18    93   102   am
    19    93    94    2
    20    14    13    1
    21   102   103    1
    22    26    25   ar
    23    26    28   ar
    24    25    27   ar
    25    18    16    1
    26    31    32    1
    27    13    16    1
    28    13    12    1
    29    28    30   ar
    30    27    29   ar
    31    16    17    1
    32    32    33    1
    33    32    35    1
    34   103   106    1
    35   103   104    1
    36   107   106    1
    37   107   108    1
    38   107   109    1
    39   104   105    2
    40    30    29   ar
    41    34    33    2
    42    35    36    1
    43    17    19    1
    44   128   127   ar
    45    36    37    1
    46   127   129   ar
    47   127   126    1
    48    89    87   ar
    49    89    90   ar
    50    37    38    1
    51    87    85   ar
    52   126   123    1
    53   123   122    1
    54   123   124    1
    55    90    88   ar
    56   113   112    2
    57   117   119   ar
    58   117   115   ar
    59    83    82    2
    60    82    81    1
    61   119   120   ar
    62     4     3    2
    63    85    84    1
    64    85    86   ar
    65   110   111    1
    66   125   124    2
    67     3     2    1
    68   114   115    1
    69   114   111    1
    70    84    81    1
    71    39    40    1
    72    10     9    1
    73   115   116   ar
    74   112   111    1
    75    88    86   ar
    76    81    80    1
    77     6     7    1
    78     6     5    1
    79   120   121    1
    80   120   118   ar
    81     9    11    1
    82     9     8    2
    83     2     5    1
    84     2     1    1
    85     7     8    1
    86    40    43    1
    87    40    41    1
    88   116   118   ar
    89    43    44    1
    90    46    45    2
    91    41    42    2
    92    63    61    1
    93    44    45    1
    94    45    47   am
    95    61    60    2
    96    61    62    1
    97    48    49    1
    98    60    59    1
    99    49    52    1
   100    49    50    1
   101    78    77    2
   102    77    76    1
   103    77    79   am
   104    76    75    1
   105    58    59    1
   106    58    57    1
   107    50    53   am
   108    50    51    2
   109    53    54    1
   110    67    66    2
   111    75    72    1
   112    74    73    2
   113    56    55    2
   114    72    73    1
   115    72    71    1
   116    57    54    1
   117    54    55    1
   118    55    64   am
   119    66    71   am
   120    66    65    1
   121    64    65    1
   122    65    68    1
   123    68    69    1
   124    68    70    1
