@<TRIPOS>MOLECULE
tmp/1lowA00.pdb
 147 145 0 0 0
SMALL
GASTEIGER

@<TRIPOS>ATOM
      1  N         15.7980   26.9190    9.0340 N.3    36  ASN36      -0.1240
      2  CA        16.2970   25.7100    8.3830 C.3    36  ASN36       0.1653
      3  C         15.3210   25.1500    7.3450 C.2    36  ASN36       0.2266
      4  O         15.5030   24.0400    6.8350 O.2    36  ASN36      -0.2867
      5  CB        16.6140   24.6250    9.4200 C.3    36  ASN36       0.1155
      6  CG        17.7070   25.0350   10.3850 C.2    36  ASN36       0.2627
      7  OD1       18.7920   25.4600    9.9780 O.2    36  ASN36      -0.2716
      8  ND2       17.4350   24.8870   11.6740 N.am   36  ASN36      -0.0877
      9  N         11.9320   23.9080    7.2830 N.3    38  TYR38      -0.1241
     10  CA        11.2740   22.6250    7.5380 C.3    38  TYR38       0.1605
     11  C          9.8860   22.6240    6.8880 C.2    38  TYR38       0.2264
     12  O          9.2580   23.6760    6.7580 O.2    38  TYR38      -0.2867
     13  CB        11.1420   22.4050    9.0460 C.3    38  TYR38       0.0534
     14  CG        12.4540   22.1500    9.7410 C.ar   38  TYR38      -0.0201
     15  CD1       13.1430   20.9560    9.5430 C.ar   38  TYR38      -0.0009
     16  CD2       13.0260   23.1110   10.5740 C.ar   38  TYR38      -0.0009
     17  CE1       14.3630   20.7230   10.1500 C.ar   38  TYR38       0.0417
     18  CE2       14.2540   22.8850   11.1870 C.ar   38  TYR38       0.0417
     19  CZ        14.9160   21.6900   10.9690 C.ar   38  TYR38       0.1957
     20  OH        16.1350   21.4530   11.5610 O.3    38  TYR38      -0.2866
     21  N         12.3220   19.5290    5.9310 N.3    40  ALA40      -0.1231
     22  CA        13.4950   19.4740    5.0730 C.3    40  ALA40       0.1694
     23  C         13.8750   18.0550    4.6760 C.2    40  ALA40       0.2592
     24  O         13.6110   17.0990    5.3970 O.2    40  ALA40      -0.2718
     25  CB        14.6700   20.1470    5.7640 C.3    40  ALA40       0.0304
     26  N         14.4980   17.9340    3.5130 N.am   41  LYS41      -0.1966
     27  CA        14.9460   16.6470    3.0060 C.3    41  LYS41       0.1728
     28  C         15.9350   16.0260    4.0010 C.2    41  LYS41       0.2616
     29  O         16.9020   16.6710    4.4110 O.2    41  LYS41      -0.2715
     30  CB        15.6100   16.8700    1.6430 C.3    41  LYS41       0.0311
     31  CG        16.3060   15.6680    1.0290 C.3    41  LYS41       0.0038
     32  CD        15.3400   14.5740    0.6050 C.3    41  LYS41       0.0206
     33  CE        16.0850   13.4460   -0.0970 C.3    41  LYS41       0.1093
     34  NZ        15.1930   12.3630   -0.5830 N.3    41  LYS41      -0.1314
     35  N         15.6740   14.7900    4.4160 N.am   42  TYR42      -0.1960
     36  CA        16.5690   14.0960    5.3410 C.3    42  TYR42       0.1771
     37  C         17.3410   13.0610    4.5250 C.2    42  TYR42       0.2620
     38  O         16.7610   12.1170    4.0020 O.2    42  TYR42      -0.2715
     39  CB        15.7790   13.4030    6.4580 C.3    42  TYR42       0.0574
     40  CG        16.6760   12.7100    7.4590 C.ar   42  TYR42      -0.0198
     41  CD1       17.5140   13.4370    8.3040 C.ar   42  TYR42      -0.0009
     42  CD2       16.7320   11.3190    7.5170 C.ar   42  TYR42      -0.0009
     43  CE1       18.3900   12.7930    9.1790 C.ar   42  TYR42       0.0417
     44  CE2       17.6020   10.6690    8.3820 C.ar   42  TYR42       0.0417
     45  CZ        18.4290   11.4020    9.2030 C.ar   42  TYR42       0.1957
     46  OH        19.3110   10.7400   10.0240 O.3    42  TYR42      -0.2866
     47  N         18.6500   13.2480    4.4230 N.am   43  ASN43      -0.1958
     48  CA        19.4890   12.3670    3.6230 C.3    43  ASN43       0.1819
     49  C         19.8870   11.0450    4.2640 C.2    43  ASN43       0.2621
     50  O         20.4410   10.1760    3.5950 O.2    43  ASN43      -0.2715
     51  CB        20.7560   13.1170    3.2140 C.3    43  ASN43       0.1195
     52  CG        20.4600   14.3370    2.3690 C.2    43  ASN43       0.2630
     53  OD1       19.9500   14.2230    1.2570 O.2    43  ASN43      -0.2716
     54  ND2       20.7710   15.5150    2.8970 N.am   43  ASN43      -0.0877
     55  N         19.6060   10.9000    5.5530 N.am   44  ASN44      -0.1958
     56  CA        19.9610    9.7010    6.3000 C.3    44  ASN44       0.1819
     57  C         21.4490    9.3710    6.1580 C.2    44  ASN44       0.2621
     58  O         21.8130    8.2730    5.7250 O.2    44  ASN44      -0.2715
     59  CB        19.0910    8.5130    5.8500 C.3    44  ASN44       0.1195
     60  CG        19.2210    7.3080    6.7690 C.2    44  ASN44       0.2630
     61  OD1       19.3940    7.4550    7.9770 O.2    44  ASN44      -0.2716
     62  ND2       19.1000    6.1110    6.2050 N.am   44  ASN44      -0.0877
     63  N         22.3080   10.3270    6.5180 N.am   45  TYR45      -0.1960
     64  CA        23.7530   10.1050    6.4620 C.3    45  TYR45       0.1771
     65  C         24.0920    9.0620    7.5250 C.2    45  TYR45       0.2619
     66  O         25.0420    8.2920    7.3740 O.2    45  TYR45      -0.2715
     67  CB        24.5600   11.3630    6.8060 C.3    45  TYR45       0.0574
     68  CG        24.3560   12.5780    5.9290 C.ar   45  TYR45      -0.0198
     69  CD1       24.3270   12.4770    4.5400 C.ar   45  TYR45      -0.0009
     70  CD2       24.2510   13.8480    6.4970 C.ar   45  TYR45      -0.0009
     71  CE1       24.1960   13.6180    3.7370 C.ar   45  TYR45       0.0417
     72  CE2       24.1200   14.9890    5.7090 C.ar   45  TYR45       0.0417
     73  CZ        24.0930   14.8680    4.3340 C.ar   45  TYR45       0.1957
     74  OH        23.9710   16.0050    3.5660 O.3    45  TYR45      -0.2866
     75  N         23.3210    9.0670    8.6130 N.am   46  GLU46      -0.1977
     76  CA        23.5310    8.1410    9.7220 C.3    46  GLU46       0.1602
     77  C         23.3790    6.6960    9.2760 C.2    46  GLU46       0.2287
     78  O         23.9770    5.7890    9.8530 O.2    46  GLU46      -0.2864
     79  CB        22.5250    8.3980   10.8520 C.3    46  GLU46       0.0415
     80  CG        22.7070    9.6640   11.6850 C.3    46  GLU46       0.1163
     81  CD        22.6610   10.9620   10.8880 C.2    46  GLU46       0.3649
     82  OE1       21.9360   11.0380    9.8710 O.co2  46  GLU46      -0.2457
     83  OE2       23.3300   11.9270   11.3120 O.co2  46  GLU46      -0.2457
     84  N         12.4710   15.5460    7.3300 N.3    58  GLU58      -0.1245
     85  CA        12.5100   15.7260    8.7720 C.3    58  GLU58       0.1567
     86  C         11.6610   16.9310    9.1600 C.2    58  GLU58       0.2260
     87  O         11.6340   17.9370    8.4540 O.2    58  GLU58      -0.2867
     88  CB        13.9470   15.9390    9.2510 C.3    58  GLU58       0.0388
     89  CG        14.6420   17.1310    8.6130 C.3    58  GLU58       0.1160
     90  CD        15.9950   17.4250    9.2340 C.2    58  GLU58       0.3649
     91  OE1       16.0390   17.6950   10.4520 O.co2  58  GLU58      -0.2457
     92  OE2       17.0110   17.3940    8.5070 O.co2  58  GLU58      -0.2457
     93  N         13.7350   24.9670   16.5460 N.3    73  PRO73      -0.2116
     94  CA        13.2360   23.6060   16.3120 C.3    73  PRO73       0.1372
     95  C         13.5480   22.6180   17.4410 C.2    73  PRO73       0.2244
     96  O         13.0160   21.5050   17.4650 O.2    73  PRO73      -0.2868
     97  CB        13.9410   23.2220   15.0180 C.3    73  PRO73       0.0268
     98  CG        15.3040   23.8240   15.2530 C.3    73  PRO73       0.0207
     99  CD        14.8980   25.2300   15.6760 C.3    73  PRO73       0.0892
    100  N         13.2110   15.3300   16.0460 N.3    77  ARG77      -0.1245
    101  CA        12.6090   15.3380   14.7150 C.3    77  ARG77       0.1563
    102  C         11.8130   14.0740   14.4190 C.2    77  ARG77       0.2260
    103  O         12.1620   12.9910   14.8890 O.2    77  ARG77      -0.2867
    104  CB        13.7030   15.4190   13.6500 C.3    77  ARG77       0.0307
    105  CG        14.7060   16.5510   13.8100 C.3    77  ARG77       0.0489
    106  CD        14.1510   17.8900   13.3570 C.3    77  ARG77       0.2205
    107  NE        15.1770   18.9300   13.4580 N.pl3  77  ARG77      -0.0865
    108  CZ        15.5030   19.5660   14.5800 C.cat  77  ARG77       0.5346
    109  NH1       14.8850   19.2810   15.7200 N.pl3  77  ARG77       0.1354
    110  NH2       16.4710   20.4760   14.5650 N.pl3  77  ARG77       0.1354
    111  N         19.1360   15.1540   18.1440 N.3    92  HIS92      -0.1241
    112  CA        20.5230   15.6100   18.1990 C.3    92  HIS92       0.1621
    113  C         21.0470   15.3530   19.6120 C.2    92  HIS92       0.2264
    114  O         22.2560   15.2950   19.8330 O.2    92  HIS92      -0.2867
    115  CB        20.6340   17.1160   17.9270 C.3    92  HIS92       0.0745
    116  CG        20.5200   17.4980   16.4850 C.ar   92  HIS92       0.0817
    117  ND1       21.3290   16.9590   15.5050 N.ar   92  HIS92      -0.2268
    118  CD2       19.7580   18.4330   15.8710 C.ar   92  HIS92       0.1154
    119  CE1       21.0690   17.5470   14.3500 C.ar   92  HIS92       0.1986
    120  NE2       20.1200   18.4440   14.5440 N.ar   92  HIS92      -0.2212
    121  N         26.5680   17.5580   14.7550 N.3    98  ASN98      -0.1225
    122  CA        25.2410   17.7870   14.1910 C.3    98  ASN98       0.1785
    123  C         24.6030   16.4720   13.7520 C.2    98  ASN98       0.2597
    124  O         23.7230   16.4510   12.8870 O.2    98  ASN98      -0.2718
    125  CB        25.3480   18.7280   12.9870 C.3    98  ASN98       0.1169
    126  CG        25.8220   20.1230   13.3700 C.2    98  ASN98       0.2627
    127  OD1       26.2340   20.9050   12.5130 O.2    98  ASN98      -0.2716
    128  ND2       25.7400   20.4490   14.6560 N.am   98  ASN98      -0.0877
    129  N         25.0500   15.3690   14.3380 N.am   99  ASN99      -0.1960
    130  CA        24.4850   14.0780   13.9720 C.3    99  ASN99       0.1819
    131  C         23.2200   13.8120   14.7740 C.2    99  ASN99       0.2621
    132  O         22.8610   14.5810   15.6720 O.2    99  ASN99      -0.2715
    133  CB        25.4940   12.9560   14.2150 C.3    99  ASN99       0.1195
    134  CG        26.7760   13.1520   13.4280 C.2    99  ASN99       0.2630
    135  OD1       26.7420   13.3620   12.2160 O.2    99  ASN99      -0.2716
    136  ND2       27.9130   13.0780   14.1120 N.am   99  ASN99      -0.0877
    137  N         22.5540   12.7160   14.4310 N.am  100  PHE100     -0.1974
    138  CA        21.3240   12.2830   15.0820 C.3   100  PHE100      0.1639
    139  C         21.4850   10.8570   15.5940 C.2   100  PHE100      0.2290
    140  O         22.3020   10.0930   15.0850 O.2   100  PHE100     -0.2864
    141  CB        20.1700   12.2440   14.0800 C.3   100  PHE100      0.0560
    142  CG        19.6530   13.5890   13.6630 C.ar  100  PHE100     -0.0200
    143  CD1       18.8080   14.3130   14.4980 C.ar  100  PHE100     -0.0042
    144  CD2       19.9730   14.1090   12.4130 C.ar  100  PHE100     -0.0042
    145  CE1       18.2810   15.5430   14.0860 C.ar  100  PHE100     -0.0003
    146  CE2       19.4520   15.3350   11.9920 C.ar  100  PHE100     -0.0003
    147  CZ        18.6030   16.0500   12.8340 C.ar  100  PHE100     -0.0000
@<TRIPOS>BOND
     1    34    33    1
     2    33    32    1
     3    32    31    1
     4    31    30    1
     5    53    52    2
     6    30    27    1
     7    52    54   am
     8    52    51    1
     9    27    26    1
    10    27    28    1
    11    51    48    1
    12    26    23   am
    13    74    73    1
    14    50    49    2
    15    48    49    1
    16    48    47    1
    17    71    73   ar
    18    71    69   ar
    19    28    29    2
    20    28    35   am
    21    38    37    2
    22    49    55   am
    23    73    72   ar
    24    35    36    1
    25    47    37   am
    26    37    36    1
    27    69    68   ar
    28    23    22    1
    29    23    24    2
    30    22    25    1
    31    22    21    1
    32    36    39    1
    33    55    56    1
    34    72    70   ar
    35    58    57    2
    36    59    56    1
    37    59    60    1
    38    68    70   ar
    39    68    67    1
    40    57    56    1
    41    57    63   am
    42    62    60   am
    43    39    40    1
    44    64    63    1
    45    64    67    1
    46    64    65    1
    47    12    11    2
    48    60    61    2
    49     4     3    2
    50    11    10    1
    51     9    10    1
    52    84    85    1
    53     3     2    1
    54    66    65    2
    55    40    42   ar
    56    40    41   ar
    57    42    44   ar
    58    65    75   am
    59    10    13    1
    60    41    43   ar
    61    44    45   ar
    62     2     1    1
    63     2     5    1
    64    87    86    2
    65    92    90   ar
    66    89    90    1
    67    89    88    1
    68    75    76    1
    69    85    86    1
    70    85    88    1
    71    13    14    1
    72    43    45   ar
    73    45    46    1
    74    90    91   ar
    75    77    76    1
    76    77    78    2
    77     5     6    1
    78    15    14   ar
    79    15    17   ar
    80    76    79    1
    81    14    16   ar
    82    82    81   ar
    83     7     6    2
    84    17    19   ar
    85     6     8   am
    86    16    18   ar
    87    79    80    1
    88    81    83   ar
    89    81    80    1
    90    19    18   ar
    91    19    20    1
    92   146   144   ar
    93   146   147   ar
    94   135   134    2
    95   144   142   ar
    96   127   126    2
    97   147   145   ar
    98   124   123    2
    99   125   126    1
   100   125   122    1
   101   106   107    1
   102   106   105    1
   103   126   128   am
   104   134   136   am
   105   134   133    1
   106   107   108    2
   107   104   105    1
   108   104   101    1
   109   142   141    1
   110   142   143   ar
   111   123   122    1
   112   123   129   am
   113   130   133    1
   114   130   129    1
   115   130   131    1
   116   141   138    1
   117   145   143   ar
   118   122   121    1
   119   119   120   ar
   120   119   117   ar
   121   102   101    1
   122   102   103    2
   123   137   131   am
   124   137   138    1
   125   120   118   ar
   126   110   108    1
   127   108   109    1
   128   101   100    1
   129   131   132    2
   130    97    98    1
   131    97    94    1
   132   138   139    1
   133   140   139    2
   134    98    99    1
   135   117   116   ar
   136    99    93    1
   137   118   116   ar
   138    94    93    1
   139    94    95    1
   140   116   115    1
   141    95    96    2
   142   115   112    1
   143   111   112    1
   144   112   113    1
   145   113   114    2
