@<TRIPOS>MOLECULE
tmp/1lp4A00.pdb
 202 193 0 0 0
SMALL
GASTEIGER

@<TRIPOS>ATOM
      1  N         26.8440    7.5420   26.0400 N.3    39  VAL39      -0.1231
      2  CA        25.5200    6.9660   25.9640 C.3    39  VAL39       0.1692
      3  C         25.4400    5.7070   25.1010 C.2    39  VAL39       0.2593
      4  O         24.4150    5.0350   25.1240 O.2    39  VAL39      -0.2718
      5  CB        24.4760    7.9850   25.4050 C.3    39  VAL39       0.0266
      6  CG1       24.3970    9.2160   26.2910 C.3    39  VAL39       0.0020
      7  CG2       24.8050    8.3810   23.9620 C.3    39  VAL39       0.0020
      8  N         26.4920    5.3950   24.3470 N.am   40  GLY40      -0.1942
      9  CA        26.5090    4.2190   23.4900 C.3    40  GLY40       0.2014
     10  C         27.8360    4.0140   22.8180 C.2    40  GLY40       0.2639
     11  O         28.7860    4.8010   23.0420 O.2    40  GLY40      -0.2714
     12  N         27.9270    2.9630   22.0040 N.am   41  ARG41      -0.1963
     13  CA        29.1820    2.5890   21.3450 C.3    41  ARG41       0.1729
     14  C         28.9500    1.5280   20.2610 C.2    41  ARG41       0.2617
     15  O         27.8660    0.9500   20.1670 O.2    41  ARG41      -0.2715
     16  CB        30.1890    2.0190   22.3810 C.3    41  ARG41       0.0348
     17  CG        30.0050    0.5420   22.7860 C.3    41  ARG41       0.0492
     18  CD        28.6960    0.2510   23.4610 C.3    41  ARG41       0.2205
     19  NE        28.7160   -0.9700   24.2630 N.pl3  41  ARG41      -0.0865
     20  CZ        27.6430   -1.6810   24.5700 C.cat  41  ARG41       0.5346
     21  NH1       26.4480   -1.3190   24.1140 N.pl3  41  ARG41       0.1354
     22  NH2       27.7570   -2.7670   25.3290 N.pl3  41  ARG41       0.1354
     23  N         29.9800    1.2730   19.4560 N.am   42  GLY42      -0.1940
     24  CA        29.9960    0.1630   18.5380 C.3    42  GLY42       0.2014
     25  C         31.4490   -0.2670   18.4190 C.2    42  GLY42       0.2639
     26  O         32.3230    0.3620   19.0110 O.2    42  GLY42      -0.2714
     27  N         31.7160   -1.3150   17.6630 N.am   43  LYS43      -0.1963
     28  CA        33.0880   -1.7470   17.4920 C.3    43  LYS43       0.1728
     29  C         33.9180   -0.6070   16.9220 C.2    43  LYS43       0.2616
     30  O         35.1280   -0.5990   17.0720 O.2    43  LYS43      -0.2715
     31  CB        33.1670   -2.9430   16.5450 C.3    43  LYS43       0.0311
     32  CG        32.5680   -4.2090   17.0960 C.3    43  LYS43       0.0038
     33  CD        32.6270   -5.3430   16.0810 C.3    43  LYS43       0.0206
     34  CE        31.4710   -5.2570   15.1060 C.3    43  LYS43       0.1093
     35  NZ        32.0040   -4.7440   13.8590 N.3    43  LYS43      -0.1314
     36  N         33.3000    0.3380   16.2330 N.am   44  TYR44      -0.1960
     37  CA        34.1010    1.4170   15.6260 C.3    44  TYR44       0.1771
     38  C         33.6940    2.8450   16.0030 C.2    44  TYR44       0.2620
     39  O         33.9790    3.7910   15.2660 O.2    44  TYR44      -0.2715
     40  CB        34.1930    1.2300   14.1000 C.3    44  TYR44       0.0574
     41  CG        34.6710   -0.1650   13.6950 C.ar   44  TYR44      -0.0198
     42  CD1       33.7830   -1.2190   13.5430 C.ar   44  TYR44      -0.0009
     43  CD2       36.0330   -0.4270   13.4980 C.ar   44  TYR44      -0.0009
     44  CE1       34.2370   -2.4960   13.1890 C.ar   44  TYR44       0.0417
     45  CE2       36.4840   -1.6850   13.1480 C.ar   44  TYR44       0.0417
     46  CZ        35.5860   -2.7120   13.0000 C.ar   44  TYR44       0.1957
     47  OH        36.0380   -3.9670   12.6470 O.3    44  TYR44      -0.2866
     48  N         33.0520    3.0000   17.1580 N.am   45  SER45      -0.1950
     49  CA        32.7020    4.3310   17.6560 C.3    45  SER45       0.1924
     50  C         32.3960    4.3370   19.1510 C.2    45  SER45       0.2314
     51  O         32.1420    3.2810   19.7450 O.2    45  SER45      -0.2863
     52  CB        31.5070    4.8990   16.8790 C.3    45  SER45       0.2116
     53  OG        30.2390    4.5500   17.4290 O.3    45  SER45      -0.2180
     54  N         29.8540    6.9010   21.4990 N.3    47  VAL47      -0.1245
     55  CA        28.8160    7.8890   21.2960 C.3    47  VAL47       0.1561
     56  C         28.5010    8.5170   22.6230 C.2    47  VAL47       0.2260
     57  O         28.2760    7.8170   23.6250 O.2    47  VAL47      -0.2867
     58  CB        27.5460    7.2240   20.7470 C.3    47  VAL47       0.0252
     59  CG1       26.4330    8.2510   20.5680 C.3    47  VAL47       0.0019
     60  CG2       27.8540    6.5370   19.4450 C.3    47  VAL47       0.0019
     61  N         24.4180   14.9090   19.9060 N.3    60  ILE60      -0.1245
     62  CA        25.0600   13.6110   20.0020 C.3    60  ILE60       0.1561
     63  C         26.3550   13.6690   19.1930 C.2    60  ILE60       0.2260
     64  O         26.4010   14.1600   18.0530 O.2    60  ILE60      -0.2867
     65  CB        24.1200   12.4870   19.4840 C.3    60  ILE60       0.0252
     66  CG1       22.9310   12.3280   20.4350 C.3    60  ILE60       0.0019
     67  CG2       24.9160   11.1850   19.2520 C.3    60  ILE60       0.0019
     68  CD1       23.1730   11.3610   21.5720 C.3    60  ILE60       0.0001
     69  N         29.2870   11.3310   17.8450 N.3    62  LYS62      -0.1245
     70  CA        29.7020    9.9710   17.5140 C.3    62  LYS62       0.1561
     71  C         31.1600   10.0270   17.1010 C.2    62  LYS62       0.2260
     72  O         31.4440   10.4780   16.0000 O.2    62  LYS62      -0.2867
     73  CB        28.8620    9.4480   16.3520 C.3    62  LYS62       0.0271
     74  CG        29.2060    8.0090   15.9480 C.3    62  LYS62       0.0035
     75  CD        28.1840    7.4290   14.9920 C.3    62  LYS62       0.0206
     76  CE        28.5600    5.9910   14.5450 C.3    62  LYS62       0.1093
     77  NZ        27.4130    5.3380   13.8880 N.3    62  LYS62      -0.1314
     78  N         17.4070   10.4610   11.3660 N.3    89  VAL89      -0.1245
     79  CA        18.2960   11.2260   12.2240 C.3    89  VAL89       0.1561
     80  C         19.0250   12.2800   11.3860 C.2    89  VAL89       0.2260
     81  O         19.4850   11.9940   10.2840 O.2    89  VAL89      -0.2867
     82  CB        19.3380   10.3550   12.8990 C.3    89  VAL89       0.0252
     83  CG1       20.4720    9.9800   11.9580 C.3    89  VAL89       0.0019
     84  CG2       19.8930   11.0930   14.1160 C.3    89  VAL89       0.0019
     85  N         25.1450   14.7690   15.6980 N.3   107  PHE107     -0.1227
     86  CA        23.7510   14.5390   15.4020 C.3   107  PHE107      0.1736
     87  C         22.8030   15.2730   16.3280 C.2   107  PHE107      0.2595
     88  O         23.2110   15.7260   17.4320 O.2   107  PHE107     -0.2718
     89  CB        23.4360   13.0450   15.5710 C.3   107  PHE107      0.0547
     90  CG        24.1620   12.1380   14.6480 C.ar  107  PHE107     -0.0202
     91  CD1       23.6390   11.8220   13.3970 C.ar  107  PHE107     -0.0042
     92  CD2       25.3230   11.5080   15.0450 C.ar  107  PHE107     -0.0042
     93  CE1       24.2900   10.9470   12.5640 C.ar  107  PHE107     -0.0003
     94  CE2       25.9570   10.6290   14.2210 C.ar  107  PHE107     -0.0003
     95  CZ        25.4290   10.3270   12.9770 C.ar  107  PHE107     -0.0000
     96  N         21.5530   15.3740   15.8870 N.am  108  GLU108     -0.1965
     97  CA        20.4510   15.7960   16.7190 C.3   108  GLU108      0.1733
     98  C         20.3460   14.7940   17.8570 C.2   108  GLU108      0.2616
     99  O         20.5800   13.6060   17.6750 O.2   108  GLU108     -0.2715
    100  CB        19.1090   15.7940   15.9560 C.3   108  GLU108      0.0429
    101  CG        18.5370   14.4140   15.6420 C.3   108  GLU108      0.1163
    102  CD        17.1710   14.4250   14.9320 C.2   108  GLU108      0.3649
    103  OE1       16.1420   14.6610   15.5850 O.co2 108  GLU108     -0.2457
    104  OE2       17.1150   14.1520   13.7160 O.co2 108  GLU108     -0.2457
    105  N         19.9540   15.2990   19.0190 N.am  109  TYR109     -0.1960
    106  CA        19.7370   14.5130   20.2170 C.3   109  TYR109      0.1771
    107  C         18.3150   14.0110   20.2900 C.2   109  TYR109      0.2619
    108  O         17.3700   14.8070   20.1570 O.2   109  TYR109     -0.2715
    109  CB        19.9290   15.4120   21.4340 C.3   109  TYR109      0.0574
    110  CG        19.7560   14.6850   22.7250 C.ar  109  TYR109     -0.0198
    111  CD1       20.7550   13.8500   23.1760 C.ar  109  TYR109     -0.0009
    112  CD2       18.5980   14.7740   23.4750 C.ar  109  TYR109     -0.0009
    113  CE1       20.6520   13.1570   24.3350 C.ar  109  TYR109      0.0417
    114  CE2       18.4770   14.0480   24.6750 C.ar  109  TYR109      0.0417
    115  CZ        19.5250   13.2440   25.0780 C.ar  109  TYR109      0.1957
    116  OH        19.4820   12.5110   26.2400 O.3   109  TYR109     -0.2866
    117  N         18.1740   12.7120   20.5300 N.am  110  VAL110     -0.1977
    118  CA        16.8780   12.1140   20.7740 C.3   110  VAL110      0.1596
    119  C         16.9020   11.5620   22.1970 C.2   110  VAL110      0.2287
    120  O         17.8280   10.8840   22.6010 O.2   110  VAL110     -0.2864
    121  CB        16.5500   10.9880   19.7820 C.3   110  VAL110      0.0276
    122  CG1       15.1560   10.4950   20.0460 C.3   110  VAL110      0.0022
    123  CG2       16.6800   11.5060   18.3730 C.3   110  VAL110      0.0022
    124  N         16.1180    9.1410   24.0390 N.3   112  ASN112     -0.1240
    125  CA        15.7390    7.7430   23.8860 C.3   112  ASN112      0.1653
    126  C         15.4500    7.0060   25.1900 C.2   112  ASN112      0.2266
    127  O         16.1220    7.2470   26.1870 O.2   112  ASN112     -0.2867
    128  CB        16.8900    6.9570   23.2140 C.3   112  ASN112      0.1155
    129  CG        16.4820    5.5280   22.8140 C.2   112  ASN112      0.2627
    130  OD1       15.4660    5.3260   22.1650 O.2   112  ASN112     -0.2716
    131  ND2       17.2900    4.5540   23.1740 N.am  112  ASN112     -0.0877
    132  N         20.9830   -2.3690    8.8470 N.3   150  ASP150     -0.1239
    133  CA        21.1740   -2.6120   10.2520 C.3   150  ASP150      0.1674
    134  C         19.9520   -2.1990   11.0650 C.2   150  ASP150      0.2266
    135  O         20.0670   -1.5600   12.0950 O.2   150  ASP150     -0.2867
    136  CB        22.4510   -1.9340   10.7730 C.3   150  ASP150      0.1410
    137  CG        22.9800   -2.5570   12.0320 C.2   150  ASP150      0.3668
    138  OD1       22.6480   -3.7520   12.3220 O.co2 150  ASP150     -0.2456
    139  OD2       23.8150   -1.9250   12.7910 O.co2 150  ASP150     -0.2456
    140  N         17.5050   -2.6280   13.7590 N.3   152  LYS152     -0.1245
    141  CA        17.3380   -3.3300   15.0140 C.3   152  LYS152      0.1561
    142  C         16.9290   -2.2820   16.0520 C.2   152  LYS152      0.2260
    143  O         17.1360   -1.0930   15.8360 O.2   152  LYS152     -0.2867
    144  CB        18.6740   -4.0010   15.4270 C.3   152  LYS152      0.0271
    145  CG        19.8540   -3.0360   15.3940 C.3   152  LYS152      0.0035
    146  CD        21.1670   -3.5740   15.9360 C.3   152  LYS152      0.0206
    147  CE        22.2410   -2.5220   15.8060 C.3   152  LYS152      0.1093
    148  NZ        23.5430   -2.9080   16.4070 N.3   152  LYS152     -0.1314
    149  N         18.2950   -1.1630   18.7700 N.3   154  HIS154     -0.1226
    150  CA        19.3980   -0.3010   19.1650 C.3   154  HIS154      0.1752
    151  C         19.6110    0.8340   18.1710 C.2   154  HIS154      0.2596
    152  O         20.2050    1.8140   18.5130 O.2   154  HIS154     -0.2718
    153  CB        20.7020   -1.0830   19.2790 C.3   154  HIS154      0.0759
    154  CG        20.8630   -1.8070   20.5650 C.ar  154  HIS154      0.0818
    155  ND1       21.0910   -3.1560   20.6180 N.ar  154  HIS154     -0.2268
    156  CD2       20.8580   -1.3710   21.8440 C.ar  154  HIS154      0.1154
    157  CE1       21.1990   -3.5320   21.8770 C.ar  154  HIS154      0.1986
    158  NE2       21.0600   -2.4660   22.6440 N.ar  154  HIS154     -0.2212
    159  N         19.0810    0.7060   16.9580 N.am  155  ASN155     -0.1974
    160  CA        19.2790    1.7310   15.9520 C.3   155  ASN155      0.1688
    161  C         17.9840    2.5200   15.6860 C.2   155  ASN155      0.2292
    162  O         17.8960    3.2570   14.7260 O.2   155  ASN155     -0.2864
    163  CB        19.8180    1.1240   14.6620 C.3   155  ASN155      0.1181
    164  CG        21.2300    0.6520   14.8090 C.2   155  ASN155      0.2629
    165  OD1       21.9040    1.1640   15.6590 O.2   155  ASN155     -0.2716
    166  ND2       21.7150   -0.2190   13.9100 N.am  155  ASN155     -0.0877
    167  N         15.7680    5.1620   17.7310 N.3   157  MET157     -0.1245
    168  CA        15.6510    6.0290   18.8950 C.3   157  MET157      0.1570
    169  C         14.2050    6.4680   19.0080 C.2   157  MET157      0.2261
    170  O         13.6340    6.9070   18.0390 O.2   157  MET157     -0.2867
    171  CB        16.5520    7.2470   18.7290 C.3   157  MET157      0.0387
    172  CG        18.0420    6.9440   18.7370 C.3   157  MET157      0.0595
    173  SD        18.6410    6.1410   20.2370 S.3   157  MET157     -0.1393
    174  CE        18.3830    4.3520   19.8430 C.3   157  MET157      0.0692
    175  N         18.3780    5.7670   13.3350 N.3   168  ILE168     -0.1231
    176  CA        19.7700    6.1850   13.4210 C.3   168  ILE168      0.1692
    177  C         20.6990    5.1430   12.8410 C.2   168  ILE168      0.2592
    178  O         20.2690    4.1520   12.3140 O.2   168  ILE168     -0.2718
    179  CB        20.1900    6.4510   14.8970 C.3   168  ILE168      0.0266
    180  CG1       20.1110    5.1440   15.7200 C.3   168  ILE168      0.0019
    181  CG2       19.3330    7.5540   15.5260 C.3   168  ILE168      0.0020
    182  CD1       20.9010    5.1830   17.0180 C.3   168  ILE168      0.0001
    183  N         22.0050    5.3710   12.9770 N.am  169  ASP169     -0.1974
    184  CA        23.0270    4.4040   12.5840 C.3   169  ASP169      0.1709
    185  C         23.0240    3.9210   11.1000 C.2   169  ASP169      0.2293
    186  O         22.6440    2.7730   10.7820 O.2   169  ASP169     -0.2864
    187  CB        23.0550    3.2590   13.5620 C.3   169  ASP169      0.1436
    188  CG        24.2920    2.4110   13.4160 C.2   169  ASP169      0.3671
    189  OD1       25.1070    2.7040   12.5270 O.co2 169  ASP169     -0.2456
    190  OD2       24.4820    1.4120   14.1210 O.co2 169  ASP169     -0.2456
    191  N         25.8230    3.6400    9.4100 N.3   171  GLY171     -0.1210
    192  CA        27.1870    3.1130    9.2650 C.3   171  GLY171      0.1956
    193  C         27.3830    1.7960    8.5210 C.2   171  GLY171      0.2611
    194  O         28.4760    1.4770    8.0770 O.2   171  GLY171     -0.2717
    195  N         26.3130    1.0420    8.3380 N.am  172  LEU172     -0.1979
    196  CA        26.3440   -0.1040    7.4520 C.3   172  LEU172      0.1596
    197  C         25.4850    0.0700    6.1630 C.2   172  LEU172      0.2287
    198  O         25.4850   -0.8020    5.3100 O.2   172  LEU172     -0.2864
    199  CB        25.8640   -1.3290    8.2000 C.3   172  LEU172      0.0297
    200  CG        26.9050   -2.0110    9.1010 C.3   172  LEU172      0.0022
    201  CD1       26.3000   -3.1790    9.8290 C.3   172  LEU172      0.0001
    202  CD2       28.1350   -2.4780    8.3150 C.3   172  LEU172      0.0001
@<TRIPOS>BOND
     1   198   197    2
     2   197   196    1
     3   196   199    1
     4   196   195    1
     5   194   193    2
     6   199   200    1
     7   202   200    1
     8   195   193   am
     9   193   192    1
    10   132   133    1
    11   200   201    1
    12   192   191    1
    13   133   136    1
    14   133   134    1
    15    81    80    2
    16   136   137    1
    17   186   185    2
    18   134   135    2
    19   185   184    1
    20    78    79    1
    21    80    79    1
    22    83    82    1
    23   137   138   ar
    24   137   139   ar
    25    79    82    1
    26   178   177    2
    27   189   188   ar
    28    93    95   ar
    29    93    91   ar
    30   184   183    1
    31   184   187    1
    32    47    46    1
    33   177   183   am
    34   177   176    1
    35    82    84    1
    36    95    94   ar
    37    46    45   ar
    38    46    44   ar
    39    45    43   ar
    40    44    42   ar
    41   175   176    1
    42    91    90   ar
    43   188   187    1
    44   188   190   ar
    45   176   179    1
    46    43    41   ar
    47    42    41   ar
    48    41    40    1
    49   104   102   ar
    50   140   141    1
    51    35    34    1
    52    77    76    1
    53   166   164   am
    54    40    37    1
    55    94    92   ar
    56    76    75    1
    57    90    92   ar
    58    90    89    1
    59   163   164    1
    60   163   160    1
    61   162   161    2
    62   164   165    2
    63   179   181    1
    64   179   180    1
    65   102   103   ar
    66   102   101    1
    67    75    74    1
    68   141   144    1
    69   141   142    1
    70    34    33    1
    71    39    38    2
    72   145   144    1
    73   145   146    1
    74    86    89    1
    75    86    85    1
    76    86    87    1
    77    37    38    1
    78    37    36    1
    79   101   100    1
    80   161   160    1
    81   180   182    1
    82   147   146    1
    83   147   148    1
    84   143   142    2
    85    96    87   am
    86    96    97    1
    87    74    73    1
    88   160   159    1
    89   100    97    1
    90    72    71    2
    91    38    48   am
    92    33    32    1
    93    36    29   am
    94    87    88    2
    95    73    70    1
    96    31    32    1
    97    31    28    1
    98    97    98    1
    99    52    53    1
   100    52    49    1
   101    29    30    2
   102    29    28    1
   103   159   151   am
   104    71    70    1
   105    48    49    1
   106    28    27    1
   107    70    69    1
   108    49    50    1
   109    27    25   am
   110    99    98    2
   111   167   168    1
   112    98   105   am
   113   170   169    2
   114    64    63    2
   115   151   152    2
   116   151   150    1
   117   123   121    1
   118    25    24    1
   119    25    26    2
   120    24    23    1
   121   171   172    1
   122   171   168    1
   123   172   173    1
   124   149   150    1
   125   168   169    1
   126   105   106    1
   127    50    51    2
   128   150   153    1
   129    63    62    1
   130    67    65    1
   131   153   154    1
   132    60    58    1
   133    23    14   am
   134    65    62    1
   135    65    66    1
   136   121   122    1
   137   121   118    1
   138   174   173    1
   139    61    62    1
   140   108   107    2
   141    15    14    2
   142   106   107    1
   143   106   109    1
   144    14    13    1
   145   107   117   am
   146    66    68    1
   147   117   118    1
   148   154   155   ar
   149   154   156   ar
   150    59    58    1
   151   155   157   ar
   152    58    55    1
   153   118   119    1
   154    55    54    1
   155    55    56    1
   156    13    12    1
   157    13    16    1
   158   109   110    1
   159   156   158   ar
   160   157   158   ar
   161    12    10   am
   162   130   129    2
   163   119   120    2
   164    16    17    1
   165    56    57    2
   166   110   111   ar
   167   110   112   ar
   168    17    18    1
   169   129   131   am
   170   129   128    1
   171    10    11    2
   172    10     9    1
   173   111   113   ar
   174   128   125    1
   175    18    19    1
   176   112   114   ar
   177     9     8    1
   178   125   124    1
   179   125   126    1
   180     7     5    1
   181    21    20    1
   182    19    20    2
   183   113   115   ar
   184     8     3   am
   185    20    22    1
   186   114   115   ar
   187   115   116    1
   188     3     4    2
   189     3     2    1
   190   126   127    2
   191     5     2    1
   192     5     6    1
   193     2     1    1
