@<TRIPOS>MOLECULE
tmp/1lp6B01.pdb
 116 109 0 0 0
SMALL
GASTEIGER

@<TRIPOS>ATOM
      1  N        -26.5560   59.3310   47.1070 N.3     8  ALA8       -0.1245
      2  CA       -25.5070   58.6270   47.8290 C.3     8  ALA8        0.1562
      3  C        -26.2360   57.7140   48.8140 C.2     8  ALA8        0.2260
      4  O        -26.5780   58.1310   49.9240 O.2     8  ALA8       -0.2867
      5  CB       -24.6170   59.6080   48.5880 C.3     8  ALA8        0.0290
      6  N        -25.9770   55.5610   51.3660 N.3    10  ASP10      -0.1239
      7  CA       -24.9940   55.1070   52.3330 C.3    10  ASP10       0.1674
      8  C        -25.5090   54.2600   53.4890 C.2    10  ASP10       0.2266
      9  O        -24.7210   53.8200   54.3310 O.2    10  ASP10      -0.2867
     10  CB       -24.2210   56.3180   52.8650 C.3    10  ASP10       0.1410
     11  CG       -23.3310   56.9420   51.8010 C.2    10  ASP10       0.3668
     12  OD1      -23.1710   58.1810   51.7920 O.co2  10  ASP10      -0.2456
     13  OD2      -22.7900   56.1770   50.9750 O.co2  10  ASP10      -0.2456
     14  N        -25.0670   56.1340   44.0050 N.3    32  LYS32      -0.1245
     15  CA       -23.7040   55.7800   44.3850 C.3    32  LYS32       0.1561
     16  C        -23.7510   54.8470   45.5980 C.2    32  LYS32       0.2260
     17  O        -24.4030   55.1490   46.6010 O.2    32  LYS32      -0.2867
     18  CB       -22.8880   57.0370   44.7300 C.3    32  LYS32       0.0271
     19  CG       -21.4170   56.7310   45.0640 C.3    32  LYS32       0.0035
     20  CD       -20.5710   58.0240   45.2000 C.3    32  LYS32       0.0206
     21  CE       -20.9440   58.8430   46.4220 C.3    32  LYS32       0.1093
     22  NZ       -20.6430   58.1530   47.7230 N.3    32  LYS32      -0.1314
     23  N        -18.5980   53.2370   44.7610 N.3    60  ASP60      -0.1239
     24  CA       -17.6460   54.1170   45.4310 C.3    60  ASP60       0.1674
     25  C        -16.6920   53.2360   46.2320 C.2    60  ASP60       0.2266
     26  O        -16.7480   53.1740   47.4520 O.2    60  ASP60      -0.2867
     27  CB       -18.3960   55.0890   46.3410 C.3    60  ASP60       0.1410
     28  CG       -17.4820   56.1310   46.9580 C.2    60  ASP60       0.3668
     29  OD1      -16.3000   56.1730   46.5820 O.co2  60  ASP60      -0.2456
     30  OD2      -17.9520   56.9000   47.8090 O.co2  60  ASP60      -0.2456
     31  N        -13.2690   53.4080   45.7910 N.3    62  LYS62      -0.1245
     32  CA       -11.9620   54.0790   45.9350 C.3    62  LYS62       0.1561
     33  C        -10.8180   53.0690   45.7750 C.2    62  LYS62       0.2260
     34  O         -9.9590   52.9000   46.6550 O.2    62  LYS62      -0.2867
     35  CB       -11.8990   54.7980   47.3000 C.3    62  LYS62       0.0271
     36  CG       -12.9760   55.8990   47.4470 C.3    62  LYS62       0.0035
     37  CD       -12.8420   56.6840   48.7470 C.3    62  LYS62       0.0206
     38  CE       -13.8920   57.7660   48.8620 C.3    62  LYS62       0.1093
     39  NZ       -15.2570   57.1510   48.9400 N.3    62  LYS62      -0.1314
     40  N        -11.3800   65.6830   51.5690 N.3   117  SER117     -0.1202
     41  CA       -11.4680   66.8560   52.4310 C.3   117  SER117      0.2020
     42  C        -11.7340   66.5640   53.8920 C.2   117  SER117      0.2618
     43  O        -12.0520   67.4820   54.6590 O.2   117  SER117     -0.2717
     44  CB       -12.5570   67.7980   51.8940 C.3   117  SER117      0.2103
     45  OG       -13.8080   67.1330   51.8450 O.3   117  SER117     -0.2182
     46  N        -11.5980   65.2970   54.2830 N.am  118  HIS118     -0.1975
     47  CA       -11.8140   64.8850   55.6660 C.3   118  HIS118      0.1656
     48  C        -10.5810   65.2330   56.5300 C.2   118  HIS118      0.2291
     49  O         -9.4950   65.5030   56.0030 O.2   118  HIS118     -0.2864
     50  CB       -12.0660   63.3750   55.7130 C.3   118  HIS118      0.0771
     51  CG       -10.9030   62.5680   55.2220 C.ar  118  HIS118      0.0820
     52  ND1      -10.5940   62.4510   53.8830 N.ar  118  HIS118     -0.2267
     53  CD2       -9.9220   61.9220   55.8920 C.ar  118  HIS118      0.1154
     54  CE1       -9.4690   61.7710   53.7510 C.ar  118  HIS118      0.1986
     55  NE2       -9.0400   61.4380   54.9540 N.ar  118  HIS118     -0.2212
     56  N        -15.8210   66.8630   49.1320 N.3   148  SER148     -0.1217
     57  CA       -17.0570   67.2920   49.7710 C.3   148  SER148      0.1889
     58  C        -17.1050   68.7310   50.2420 C.2   148  SER148      0.2288
     59  O        -18.1900   69.2800   50.4310 O.2   148  SER148     -0.2866
     60  CB       -17.3530   66.4020   50.9730 C.3   148  SER148      0.2089
     61  OG       -17.9780   67.1540   51.9960 O.3   148  SER148     -0.2183
     62  N        -20.0680   66.1910   45.9990 N.3   170  PRO170     -0.2116
     63  CA       -21.0700   66.2710   47.0670 C.3   170  PRO170      0.1372
     64  C        -21.3590   67.7660   47.2050 C.2   170  PRO170      0.2244
     65  O        -20.7060   68.5850   46.5510 O.2   170  PRO170     -0.2868
     66  CB       -20.3280   65.7510   48.3000 C.3   170  PRO170      0.0268
     67  CG       -19.1970   64.9260   47.7370 C.3   170  PRO170      0.0207
     68  CD       -18.7790   65.6900   46.5150 C.3   170  PRO170      0.0892
     69  N        -23.8810   65.2080   44.2800 N.3   185  ILE185     -0.1231
     70  CA       -24.1290   63.9780   45.0230 C.3   185  ILE185      0.1692
     71  C        -24.7550   64.3850   46.3560 C.2   185  ILE185      0.2592
     72  O        -24.1760   65.1860   47.1010 O.2   185  ILE185     -0.2718
     73  CB       -22.8130   63.2250   45.3180 C.3   185  ILE185      0.0266
     74  CG1      -22.1110   62.8730   44.0000 C.3   185  ILE185      0.0019
     75  CG2      -23.1160   61.9930   46.1770 C.3   185  ILE185      0.0020
     76  CD1      -20.6150   62.4990   44.1590 C.3   185  ILE185      0.0001
     77  N        -25.9240   63.8170   46.6470 N.am  186  VAL186     -0.1966
     78  CA       -26.6640   64.1040   47.8770 C.3   186  VAL186      0.1727
     79  C        -27.0760   62.8130   48.5600 C.2   186  VAL186      0.2617
     80  O        -27.6740   61.9330   47.9230 O.2   186  VAL186     -0.2715
     81  CB       -27.9530   64.9110   47.5740 C.3   186  VAL186      0.0290
     82  CG1      -28.6930   65.2230   48.8670 C.3   186  VAL186      0.0023
     83  CG2      -27.6050   66.1810   46.8240 C.3   186  VAL186      0.0023
     84  N        -26.7550   62.7060   49.8510 N.am  187  GLY187     -0.1940
     85  CA       -27.0910   61.5190   50.6100 C.3   187  GLY187      0.2014
     86  C        -28.1220   61.7480   51.7070 C.2   187  GLY187      0.2639
     87  O        -29.3290   61.7320   51.4510 O.2   187  GLY187     -0.2714
     88  N        -27.6420   61.9540   52.9300 N.am  188  ARG188     -0.1963
     89  CA       -28.4960   62.1740   54.0990 C.3   188  ARG188      0.1729
     90  C        -29.7570   63.0180   53.9120 C.2   188  ARG188      0.2616
     91  O        -30.8510   62.5920   54.3050 O.2   188  ARG188     -0.2715
     92  CB       -27.6610   62.7570   55.2410 C.3   188  ARG188      0.0348
     93  CG       -26.8850   61.7100   56.0060 C.3   188  ARG188      0.0492
     94  CD       -25.8960   62.3420   56.9590 C.3   188  ARG188      0.2205
     95  NE       -24.9110   63.1370   56.2330 N.pl3 188  ARG188     -0.0865
     96  CZ       -23.8450   63.7000   56.7920 C.cat 188  ARG188      0.5346
     97  NH1      -23.6240   63.5540   58.0920 N.pl3 188  ARG188      0.1354
     98  NH2      -22.9960   64.4030   56.0520 N.pl3 188  ARG188      0.1354
     99  N        -29.6170   64.2030   53.3200 N.am  189  SER189     -0.1950
    100  CA       -30.7640   65.0900   53.1140 C.3   189  SER189      0.1924
    101  C        -31.9150   64.4430   52.3650 C.2   189  SER189      0.2314
    102  O        -33.0530   64.9190   52.4220 O.2   189  SER189     -0.2863
    103  CB       -30.3390   66.3510   52.3730 C.3   189  SER189      0.2116
    104  OG       -29.5450   67.1620   53.2150 O.3   189  SER189     -0.2180
    105  N        -32.0930   60.5270   51.9290 N.3   191  TYR191     -0.1241
    106  CA       -32.4200   59.2590   52.5700 C.3   191  TYR191      0.1605
    107  C        -32.7720   59.2970   54.0550 C.2   191  TYR191      0.2264
    108  O        -33.2050   58.2840   54.6030 O.2   191  TYR191     -0.2867
    109  CB       -31.3280   58.2070   52.2950 C.3   191  TYR191      0.0534
    110  CG       -29.9910   58.3940   52.9880 C.ar  191  TYR191     -0.0201
    111  CD1      -29.8760   58.2840   54.3750 C.ar  191  TYR191     -0.0009
    112  CD2      -28.8210   58.6080   52.2420 C.ar  191  TYR191     -0.0009
    113  CE1      -28.6290   58.3760   55.0030 C.ar  191  TYR191      0.0417
    114  CE2      -27.5780   58.7020   52.8540 C.ar  191  TYR191      0.0417
    115  CZ       -27.4850   58.5830   54.2320 C.ar  191  TYR191      0.1957
    116  OH       -26.2550   58.6550   54.8450 O.3   191  TYR191     -0.2866
@<TRIPOS>BOND
     1    74    76    1
     2    74    73    1
     3    14    15    1
     4    69    70    1
     5    15    18    1
     6    15    16    1
     7    18    19    1
     8    23    24    1
     9    70    73    1
    10    70    71    1
    11    19    20    1
    12    20    21    1
    13    73    75    1
    14    24    25    1
    15    24    27    1
    16    16    17    2
    17    33    32    1
    18    33    34    2
    19    31    32    1
    20    32    35    1
    21    62    68    1
    22    62    63    1
    23    25    26    2
    24    27    28    1
    25    71    77   am
    26    71    72    2
    27    21    22    1
    28    68    67    1
    29    65    64    2
    30    29    28   ar
    31    77    78    1
    32    83    81    1
    33    28    30   ar
    34    63    64    1
    35    63    66    1
    36     1     2    1
    37    35    36    1
    38    36    37    1
    39    81    78    1
    40    81    82    1
    41    67    66    1
    42     2     5    1
    43     2     3    1
    44    78    79    1
    45    80    79    2
    46    79    84   am
    47    37    38    1
    48     3     4    2
    49    38    39    1
    50    56    57    1
    51    57    58    1
    52    57    60    1
    53    84    85    1
    54    58    59    2
    55    85    86    1
    56    60    61    1
    57    13    11   ar
    58     6     7    1
    59    87    86    2
    60    40    41    1
    61    86    88   am
    62    12    11   ar
    63    11    10    1
    64    45    44    1
    65    44    41    1
    66   105   106    1
    67   112   114   ar
    68   112   110   ar
    69   109   106    1
    70   109   110    1
    71     7    10    1
    72     7     8    1
    73   101   102    2
    74   101   100    1
    75   103   100    1
    76   103   104    1
    77    41    42    1
    78   106   107    1
    79   114   115   ar
    80    88    89    1
    81   110   111   ar
    82   100    99    1
    83    99    90   am
    84     8     9    2
    85    54    52   ar
    86    54    55   ar
    87    52    51   ar
    88    42    46   am
    89    42    43    2
    90    90    89    1
    91    90    91    2
    92   107   108    2
    93    89    92    1
    94   115   116    1
    95   115   113   ar
    96    46    47    1
    97   111   113   ar
    98    55    53   ar
    99    51    50    1
   100    51    53   ar
   101    92    93    1
   102    47    50    1
   103    47    48    1
   104    49    48    2
   105    93    94    1
   106    98    96    1
   107    95    96    2
   108    95    94    1
   109    96    97    1
