@<TRIPOS>MOLECULE
tmp/1lpaB01.pdb
 174 170 0 0 0
SMALL
GASTEIGER

@<TRIPOS>ATOM
      1  N         13.0290   30.5520   47.3470 N.3    77  GLY77      -0.1210
      2  CA        12.8420   30.0050   48.6700 C.3    77  GLY77       0.1956
      3  C         13.8890   28.9680   49.0000 C.2    77  GLY77       0.2612
      4  O         15.0090   28.9430   48.4980 O.2    77  GLY77      -0.2717
      5  N         13.4410   28.0340   49.8070 N.am   78  PHE78      -0.1962
      6  CA        14.2540   26.9530   50.3200 C.3    78  PHE78       0.1771
      7  C         14.8640   26.1220   49.2030 C.2    78  PHE78       0.2619
      8  O         14.1790   25.8750   48.2100 O.2    78  PHE78      -0.2715
      9  CB        13.3280   26.1390   51.2150 C.3    78  PHE78       0.0574
     10  CG        14.0130   25.0230   51.9240 C.ar   78  PHE78      -0.0200
     11  CD1       15.1340   25.2870   52.6870 C.ar   78  PHE78      -0.0042
     12  CD2       13.5040   23.7570   51.7700 C.ar   78  PHE78      -0.0042
     13  CE1       15.7530   24.2330   53.3080 C.ar   78  PHE78      -0.0003
     14  CE2       14.1350   22.7100   52.3980 C.ar   78  PHE78      -0.0003
     15  CZ        15.2530   22.9510   53.1610 C.ar   78  PHE78      -0.0000
     16  N         16.1180   25.7060   49.3340 N.am   79  ILE79      -0.1963
     17  CA        16.7750   24.8770   48.3600 C.3    79  ILE79       0.1727
     18  C         17.0290   25.5820   47.0300 C.2    79  ILE79       0.2616
     19  O         18.0590   25.2510   46.4840 O.2    79  ILE79      -0.2715
     20  CB        15.9450   23.5460   48.1570 C.3    79  ILE79       0.0290
     21  CG1       15.9650   22.7700   49.4680 C.3    79  ILE79       0.0022
     22  CG2       16.5000   22.6720   47.0300 C.3    79  ILE79       0.0023
     23  CD1       15.8320   21.2410   49.3690 C.3    79  ILE79       0.0001
     24  N         16.2910   26.4790   46.3720 N.am   80  ASP80      -0.1971
     25  CA        16.7290   27.0810   45.1150 C.3    80  ASP80       0.1709
     26  C         17.9400   28.0660   45.2120 C.2    80  ASP80       0.2293
     27  O         18.4350   28.4890   46.2630 O.2    80  ASP80      -0.2864
     28  CB        15.5680   27.8510   44.4550 C.3    80  ASP80       0.1436
     29  CG        14.2950   27.1580   43.9950 C.2    80  ASP80       0.3671
     30  OD1       14.4150   26.0530   43.4890 O.co2  80  ASP80      -0.2456
     31  OD2       13.1990   27.7330   44.1240 O.co2  80  ASP80      -0.2456
     32  N         16.2640   23.2780   56.9800 N.3   115  TYR115     -0.1241
     33  CA        15.1630   24.2510   56.9150 C.3   115  TYR115      0.1605
     34  C         15.1480   25.2420   58.0640 C.2   115  TYR115      0.2264
     35  O         15.0190   26.4330   57.8540 O.2   115  TYR115     -0.2867
     36  CB        13.8030   23.5800   56.9150 C.3   115  TYR115      0.0534
     37  CG        12.6530   24.5550   56.7800 C.ar  115  TYR115     -0.0201
     38  CD1       12.2570   25.0000   55.5360 C.ar  115  TYR115     -0.0009
     39  CD2       12.0630   25.0300   57.9270 C.ar  115  TYR115     -0.0009
     40  CE1       11.2680   25.9440   55.4260 C.ar  115  TYR115      0.0417
     41  CE2       11.0720   25.9770   57.8340 C.ar  115  TYR115      0.0417
     42  CZ        10.6860   26.4240   56.5860 C.ar  115  TYR115      0.1957
     43  OH         9.6910   27.3910   56.5350 O.3   115  TYR115     -0.2866
     44  N          8.9180   34.0110   46.5690 N.3   152  HIS152     -0.1226
     45  CA         8.2560   32.7110   46.6940 C.3   152  HIS152      0.1752
     46  C          8.5850   31.9850   48.0030 C.2   152  HIS152      0.2597
     47  O          9.7600   31.8710   48.3310 O.2   152  HIS152     -0.2718
     48  CB         8.6740   31.9030   45.5000 C.3   152  HIS152      0.0759
     49  CG         8.3580   30.4290   45.5700 C.ar  152  HIS152      0.0818
     50  ND1        9.1620   29.4350   45.9050 N.ar  152  HIS152     -0.2268
     51  CD2        7.1590   29.8640   45.2380 C.ar  152  HIS152      0.1154
     52  CE1        8.5100   28.3030   45.7840 C.ar  152  HIS152      0.1986
     53  NE2        7.3120   28.5700   45.3850 N.ar  152  HIS152     -0.2212
     54  N          7.6410   31.5060   48.8090 N.am  153  SER153     -0.1938
     55  CA         7.8610   30.7050   50.0000 C.3   153  SER153      0.2055
     56  C          8.7790   31.2460   51.0760 C.2   153  SER153      0.2642
     57  O          8.4250   32.2480   51.7100 O.2   153  SER153     -0.2714
     58  CB         8.3150   29.3910   49.4760 C.3   153  SER153      0.2130
     59  OG         8.2350   28.2830   50.3620 O.3   153  SER153     -0.2179
     60  N          9.9390   30.6860   51.4200 N.am  154  LEU154     -0.1977
     61  CA        10.8020   31.3730   52.3660 C.3   154  LEU154      0.1596
     62  C         11.2210   32.7550   51.7710 C.2   154  LEU154      0.2287
     63  O         11.2610   33.7610   52.4700 O.2   154  LEU154     -0.2864
     64  CB        11.9230   30.3940   52.6040 C.3   154  LEU154      0.0297
     65  CG        12.3430   30.1870   54.0390 C.3   154  LEU154      0.0022
     66  CD1       11.2500   29.6350   54.9150 C.3   154  LEU154      0.0001
     67  CD2       13.4910   29.2240   53.9970 C.3   154  LEU154      0.0001
     68  N          6.0020   30.5010   53.1960 N.3   179  ALA179     -0.1245
     69  CA         6.2080   29.2610   53.9060 C.3   179  ALA179      0.1562
     70  C          5.4840   29.2730   55.2300 C.2   179  ALA179      0.2260
     71  O          5.4540   30.3110   55.9030 O.2   179  ALA179     -0.2867
     72  CB         7.6530   29.0740   54.1630 C.3   179  ALA179      0.0290
     73  N          5.9030   26.5130   57.9090 N.3   181  PRO181     -0.2116
     74  CA         6.6750   26.1830   59.0980 C.3   181  PRO181      0.1372
     75  C          7.5580   27.3480   59.5770 C.2   181  PRO181      0.2244
     76  O          8.3470   27.9100   58.8130 O.2   181  PRO181     -0.2868
     77  CB         7.4430   24.9660   58.6670 C.3   181  PRO181      0.0268
     78  CG         6.6350   24.3760   57.5380 C.3   181  PRO181      0.0207
     79  CD         6.2510   25.6260   56.8010 C.3   181  PRO181      0.0892
     80  N          1.3110   21.5000   56.9920 N.3   210  ILE210     -0.1245
     81  CA         2.6010   20.8700   56.7480 C.3   210  ILE210      0.1561
     82  C          2.6360   19.4550   57.3230 C.2   210  ILE210      0.2260
     83  O          3.0580   18.5040   56.6790 O.2   210  ILE210     -0.2867
     84  CB         3.6920   21.8050   57.3420 C.3   210  ILE210      0.0252
     85  CG1        5.0140   21.1630   57.0070 C.3   210  ILE210      0.0019
     86  CG2        3.5080   22.0860   58.8360 C.3   210  ILE210      0.0019
     87  CD1        5.3710   21.3210   55.5270 C.3   210  ILE210      0.0001
     88  N          1.7400   17.7600   54.4900 N.3   214  LEU214     -0.1245
     89  CA         2.8680   18.3390   53.7940 C.3   214  LEU214      0.1561
     90  C          2.4680   19.4170   52.8130 C.2   214  LEU214      0.2260
     91  O          2.7630   19.4220   51.6140 O.2   214  LEU214     -0.2867
     92  CB         3.6990   17.2270   53.1110 C.3   214  LEU214      0.0270
     93  CG         4.6940   16.4780   54.0190 C.3   214  LEU214      0.0019
     94  CD1        5.6920   17.4760   54.6350 C.3   214  LEU214      0.0001
     95  CD2        3.9500   15.7590   55.1470 C.3   214  LEU214      0.0001
     96  N          3.3710   22.9150   52.2810 N.3   216  PHE216     -0.1241
     97  CA         4.4190   23.9120   52.4930 C.3   216  PHE216      0.1605
     98  C          4.0060   25.3870   52.6820 C.2   216  PHE216      0.2264
     99  O          4.6780   26.1740   53.3690 O.2   216  PHE216     -0.2867
    100  CB         5.3840   23.8160   51.3350 C.3   216  PHE216      0.0534
    101  CG         5.9630   22.4130   51.1820 C.ar  216  PHE216     -0.0203
    102  CD1        6.6760   21.8230   52.2050 C.ar  216  PHE216     -0.0042
    103  CD2        5.7430   21.6850   50.0320 C.ar  216  PHE216     -0.0042
    104  CE1        7.1470   20.5380   52.0790 C.ar  216  PHE216     -0.0003
    105  CE2        6.2250   20.3910   49.9150 C.ar  216  PHE216     -0.0003
    106  CZ         6.9250   19.8100   50.9360 C.ar  216  PHE216     -0.0000
    107  N         13.0420   16.7340   33.2100 N.3   252  ILE252     -0.1231
    108  CA        13.0380   15.7800   34.3200 C.3   252  ILE252      0.1692
    109  C         13.1060   16.6960   35.5380 C.2   252  ILE252      0.2592
    110  O         12.4300   16.4910   36.5280 O.2   252  ILE252     -0.2718
    111  CB        14.2890   14.8240   34.2890 C.3   252  ILE252      0.0266
    112  CG1       14.0180   13.7610   33.2310 C.3   252  ILE252      0.0019
    113  CG2       14.5730   14.1390   35.6280 C.3   252  ILE252      0.0020
    114  CD1       12.7050   12.9780   33.4720 C.3   252  ILE252      0.0001
    115  N         13.8480   17.8050   35.4120 N.am  253  TRP253     -0.1976
    116  CA        13.9980   18.7780   36.4850 C.3   253  TRP253      0.1640
    117  C         12.7150   19.4750   36.8650 C.2   253  TRP253      0.2290
    118  O         12.4100   19.4980   38.0670 O.2   253  TRP253     -0.2864
    119  CB        14.9980   19.8520   36.1160 C.3   253  TRP253      0.0576
    120  CG        15.3350   20.8150   37.2480 C.ar  253  TRP253      0.0006
    121  CD1       15.4390   22.1700   36.9990 C.ar  253  TRP253      0.0946
    122  CD2       15.6410   20.4730   38.5430 C.ar  253  TRP253      0.0152
    123  NE1       15.8300   22.6750   38.1350 N.ar  253  TRP253     -0.2442
    124  CE2       15.9610   21.7110   39.0720 C.ar  253  TRP253      0.0810
    125  CE3       15.7080   19.3440   39.3270 C.ar  253  TRP253      0.0012
    126  CZ2       16.3480   21.8260   40.3830 C.ar  253  TRP253      0.0191
    127  CZ3       16.0980   19.4610   40.6390 C.ar  253  TRP253      0.0001
    128  CH2       16.4140   20.6920   41.1560 C.ar  253  TRP253      0.0015
    129  N         10.6930   16.7560   38.4780 N.3   256  THR256     -0.1203
    130  CA        11.1240   16.4050   39.8220 C.3   256  THR256      0.1994
    131  C         10.6600   17.4530   40.8230 C.2   256  THR256      0.2617
    132  O         10.1030   17.1080   41.8790 O.2   256  THR256     -0.2717
    133  CB        12.5980   16.3450   39.9070 C.3   256  THR256      0.1784
    134  OG1       13.0060   15.4990   38.8500 O.3   256  THR256     -0.2211
    135  CG2       13.0520   15.8640   41.2830 C.3   256  THR256      0.0376
    136  N         10.8240   18.7200   40.4400 N.am  257  ARG257     -0.1979
    137  CA        10.4100   19.7840   41.3010 C.3   257  ARG257      0.1597
    138  C          8.9350   19.6590   41.6460 C.2   257  ARG257      0.2287
    139  O          8.5790   19.7960   42.8130 O.2   257  ARG257     -0.2864
    140  CB        10.6830   21.0750   40.6120 C.3   257  ARG257      0.0334
    141  CG        12.1440   21.2900   40.4010 C.3   257  ARG257      0.0492
    142  CD        12.4200   22.6860   39.9390 C.3   257  ARG257      0.2205
    143  NE        12.5100   23.5870   41.0590 N.pl3 257  ARG257     -0.0865
    144  CZ        12.3600   24.8930   40.8740 C.cat 257  ARG257      0.5346
    145  NH1       12.1950   25.4190   39.6360 N.pl3 257  ARG257      0.1354
    146  NH2       12.3650   25.6810   41.9520 N.pl3 257  ARG257      0.1354
    147  N          8.0860   16.8500   43.9680 N.3   260  ALA260     -0.1231
    148  CA         8.4540   17.2610   45.3070 C.3   260  ALA260      0.1694
    149  C          7.5350   18.3060   45.8860 C.2   260  ALA260      0.2591
    150  O          7.1420   18.2000   47.0580 O.2   260  ALA260     -0.2718
    151  CB         9.8460   17.8740   45.3580 C.3   260  ALA260      0.0304
    152  N          7.1900   19.3110   45.0700 N.am  261  ALA261     -0.1980
    153  CA         6.4530   20.4380   45.5760 C.3   261  ALA261      0.1597
    154  C          5.4540   21.0980   44.6180 C.2   261  ALA261      0.2287
    155  O          5.2230   22.3120   44.6770 O.2   261  ALA261     -0.2864
    156  CB         7.5410   21.4130   46.0750 C.3   261  ALA261      0.0319
    157  N          2.9720   24.0710   45.6280 N.3   264  HIS264     -0.1226
    158  CA         3.7530   25.0970   46.2770 C.3   264  HIS264      0.1752
    159  C          4.5020   25.8750   45.2320 C.2   264  HIS264      0.2595
    160  O          4.8960   27.0130   45.4870 O.2   264  HIS264     -0.2718
    161  CB         4.7420   24.4430   47.2420 C.3   264  HIS264      0.0759
    162  CG         5.5820   25.3630   48.1060 C.ar  264  HIS264      0.0818
    163  ND1        5.1040   26.3640   48.8170 N.ar  264  HIS264     -0.2268
    164  CD2        6.9460   25.2550   48.3330 C.ar  264  HIS264      0.1154
    165  CE1        6.1250   26.8350   49.4660 C.ar  264  HIS264      0.1986
    166  NE2        7.2260   26.1940   49.1880 N.ar  264  HIS264     -0.2212
    167  N          4.8360   25.2420   44.1280 N.am  265  LEU265     -0.1980
    168  CA         5.5550   25.9230   43.0890 C.3   265  LEU265      0.1596
    169  C          4.5730   26.4570   42.0290 C.2   265  LEU265      0.2287
    170  O          4.9200   27.2690   41.1660 O.2   265  LEU265     -0.2864
    171  CB         6.5460   24.9330   42.5160 C.3   265  LEU265      0.0297
    172  CG         7.4700   24.2330   43.4620 C.3   265  LEU265      0.0022
    173  CD1        8.1640   23.1390   42.6960 C.3   265  LEU265      0.0001
    174  CD2        8.4530   25.2040   44.0630 C.3   265  LEU265      0.0001
@<TRIPOS>BOND
     1   107   108    1
     2   112   114    1
     3   112   111    1
     4   111   108    1
     5   111   113    1
     6   108   109    1
     7   115   109   am
     8   115   116    1
     9   109   110    2
    10   119   116    1
    11   119   120    1
    12   116   117    1
    13   117   118    2
    14   121   120   ar
    15   121   123   ar
    16   120   122   ar
    17   123   124   ar
    18   129   130    1
    19   122   124   ar
    20   122   125   ar
    21   134   133    1
    22   124   126   ar
    23   125   127   ar
    24   145   144    1
    25   130   133    1
    26   130   131    1
    27   133   135    1
    28   142   141    1
    29   142   143    1
    30   126   128   ar
    31   141   140    1
    32   136   131   am
    33   136   137    1
    34   140   137    1
    35   127   128   ar
    36   131   132    2
    37   144   143    2
    38   144   146    1
    39   170   169    2
    40   137   138    1
    41   138   139    2
    42   169   168    1
    43   171   168    1
    44   171   172    1
    45   173   172    1
    46   168   167    1
    47   172   174    1
    48    30    29   ar
    49   147   148    1
    50    29    31   ar
    51    29    28    1
    52   167   159   am
    53    28    25    1
    54   154   155    2
    55   154   153    1
    56   152   153    1
    57   152   149   am
    58    25    26    1
    59    25    24    1
    60    26    27    2
    61   159   160    2
    62   159   158    1
    63    51    53   ar
    64    51    49   ar
    65   148   151    1
    66   148   149    1
    67    53    52   ar
    68    48    49    1
    69    48    45    1
    70    49    50   ar
    71   153   156    1
    72   157   158    1
    73    52    50   ar
    74   149   150    2
    75   158   161    1
    76    24    18   am
    77    19    18    2
    78    44    45    1
    79    45    46    1
    80    18    17    1
    81    22    20    1
    82   161   162    1
    83     1     2    1
    84    46    47    2
    85    46    54   am
    86   162   164   ar
    87   162   163   ar
    88    20    17    1
    89    20    21    1
    90     8     7    2
    91   164   166   ar
    92    17    16    1
    93     4     3    2
    94     2     3    1
    95    54    55    1
    96   163   165   ar
    97     3     5   am
    98   166   165   ar
    99     7    16   am
   100     7     6    1
   101    23    21    1
   102    58    55    1
   103    58    59    1
   104     5     6    1
   105   105   103   ar
   106   105   106   ar
   107    55    56    1
   108   103   101   ar
   109     6     9    1
   110   106   104   ar
   111    56    60   am
   112    56    57    2
   113   101   100    1
   114   101   102   ar
   115     9    10    1
   116   100    97    1
   117    60    61    1
   118    91    90    2
   119    12    10   ar
   120    12    14   ar
   121    62    61    1
   122    62    63    2
   123    10    11   ar
   124   104   102   ar
   125    96    97    1
   126    61    64    1
   127    14    15   ar
   128    97    98    1
   129    64    65    1
   130    98    99    2
   131    11    13   ar
   132    90    89    1
   133    92    89    1
   134    92    93    1
   135    15    13   ar
   136    68    69    1
   137    89    88    1
   138    69    72    1
   139    69    70    1
   140    67    65    1
   141    93    94    1
   142    93    95    1
   143    65    66    1
   144    70    71    2
   145    40    38   ar
   146    40    42   ar
   147    87    85    1
   148    38    37   ar
   149    43    42    1
   150    42    41   ar
   151    83    82    2
   152    81    80    1
   153    81    82    1
   154    81    84    1
   155    37    36    1
   156    37    39   ar
   157    79    78    1
   158    79    73    1
   159    33    36    1
   160    33    32    1
   161    33    34    1
   162    85    84    1
   163    84    86    1
   164    78    77    1
   165    41    39   ar
   166    35    34    2
   167    73    74    1
   168    77    74    1
   169    76    75    2
   170    74    75    1
