@<TRIPOS>MOLECULE
tmp/1lpbB02.pdb
 134 130 0 0 0
SMALL
GASTEIGER

@<TRIPOS>ATOM
      1  N         12.9360   27.7290   50.3960 N.3    78  PHE78      -0.1227
      2  CA        13.7240   26.6260   50.8790 C.3    78  PHE78       0.1736
      3  C         14.1530   25.7120   49.7290 C.2    78  PHE78       0.2595
      4  O         13.4060   25.5090   48.7780 O.2    78  PHE78      -0.2718
      5  CB        12.8570   25.8750   51.8600 C.3    78  PHE78       0.0547
      6  CG        13.5570   24.8170   52.6230 C.ar   78  PHE78      -0.0202
      7  CD1       14.7230   25.0980   53.3310 C.ar   78  PHE78      -0.0042
      8  CD2       13.0010   23.5460   52.7130 C.ar   78  PHE78      -0.0042
      9  CE1       15.3220   24.1260   54.1280 C.ar   78  PHE78      -0.0003
     10  CE2       13.5940   22.5770   53.5070 C.ar   78  PHE78      -0.0003
     11  CZ        14.7610   22.8710   54.2200 C.ar   78  PHE78      -0.0000
     12  N         15.3920   25.2230   49.8280 N.am   79  ILE79      -0.1980
     13  CA        16.0410   24.3390   48.8720 C.3    79  ILE79       0.1595
     14  C         16.3460   24.9080   47.4960 C.2    79  ILE79       0.2287
     15  O         17.2450   24.3900   46.8170 O.2    79  ILE79      -0.2864
     16  CB        15.2860   23.0310   48.7070 C.3    79  ILE79       0.0276
     17  CG1       15.2370   22.2840   50.0260 C.3    79  ILE79       0.0022
     18  CG2       15.9890   22.1360   47.7090 C.3    79  ILE79       0.0022
     19  CD1       14.1330   21.3060   50.0290 C.3    79  ILE79       0.0001
     20  N         -1.7060   26.3700   48.8230 N.3   206  ASP206     -0.1239
     21  CA        -1.4520   25.1310   49.5430 C.3   206  ASP206      0.1674
     22  C         -1.6670   25.3350   51.0480 C.2   206  ASP206      0.2266
     23  O         -0.8060   24.9970   51.8730 O.2   206  ASP206     -0.2867
     24  CB        -0.0240   24.6800   49.2280 C.3   206  ASP206      0.1410
     25  CG         0.3290   23.3780   49.8770 C.2   206  ASP206      0.3668
     26  OD1       -0.5260   22.4690   49.9060 O.co2 206  ASP206     -0.2456
     27  OD2        1.4700   23.2650   50.3540 O.co2 206  ASP206     -0.2456
     28  N         -1.9230   17.1810   57.0770 N.3   213  ASN213     -0.1225
     29  CA        -2.0090   17.3990   55.6360 C.3   213  ASN213      0.1785
     30  C         -0.7640   17.7950   54.8880 C.2   213  ASN213      0.2597
     31  O         -0.7130   17.6280   53.6790 O.2   213  ASN213     -0.2718
     32  CB        -3.1120   18.3780   55.3170 C.3   213  ASN213      0.1169
     33  CG        -4.2950   18.1860   56.1920 C.2   213  ASN213      0.2627
     34  OD1       -4.2700   18.5610   57.3700 O.2   213  ASN213     -0.2716
     35  ND2       -5.3260   17.5530   55.6610 N.am  213  ASN213     -0.0877
     36  N          0.2380   18.3250   55.5670 N.am  214  LEU214     -0.1980
     37  CA         1.4560   18.7050   54.8690 C.3   214  LEU214      0.1596
     38  C          1.2660   19.8550   53.8650 C.2   214  LEU214      0.2287
     39  O          1.8820   19.8770   52.7850 O.2   214  LEU214     -0.2864
     40  CB         2.0920   17.4890   54.1700 C.3   214  LEU214      0.0297
     41  CG         3.1180   16.6230   54.9170 C.3   214  LEU214      0.0022
     42  CD1        4.4570   17.3220   55.0220 C.3   214  LEU214      0.0001
     43  CD2        2.5980   16.2340   56.2870 C.3   214  LEU214      0.0001
     44  N          2.1860   23.1800   52.8050 N.3   216  PHE216     -0.1241
     45  CA         3.3090   24.0770   53.0230 C.3   216  PHE216      0.1605
     46  C          3.0030   25.5330   53.2150 C.2   216  PHE216      0.2264
     47  O          3.7930   26.2350   53.8060 O.2   216  PHE216     -0.2867
     48  CB         4.3040   23.9480   51.8670 C.3   216  PHE216      0.0534
     49  CG         4.8290   22.5550   51.6700 C.ar  216  PHE216     -0.0203
     50  CD1        5.2750   21.8060   52.7500 C.ar  216  PHE216     -0.0042
     51  CD2        4.9010   22.0020   50.4050 C.ar  216  PHE216     -0.0042
     52  CE1        5.7920   20.5270   52.5740 C.ar  216  PHE216     -0.0003
     53  CE2        5.4160   20.7190   50.2090 C.ar  216  PHE216     -0.0003
     54  CZ         5.8630   19.9840   51.3000 C.ar  216  PHE216     -0.0000
     55  N         -6.4080   22.6540   47.3590 N.3   234  GLU234     -0.1245
     56  CA        -6.0220   21.6180   46.4050 C.3   234  GLU234      0.1567
     57  C         -6.1250   22.2090   44.9900 C.2   234  GLU234      0.2260
     58  O         -7.1560   22.7210   44.6020 O.2   234  GLU234     -0.2867
     59  CB        -6.9230   20.3980   46.6160 C.3   234  GLU234      0.0388
     60  CG        -6.3170   19.0210   46.2580 C.3   234  GLU234      0.1160
     61  CD        -4.9790   18.6700   46.9600 C.2   234  GLU234      0.3649
     62  OE1       -4.9350   18.5850   48.2160 O.co2 234  GLU234     -0.2457
     63  OE2       -3.9820   18.4190   46.2330 O.co2 234  GLU234     -0.2457
     64  N         -3.3520   16.4350   41.6860 N.3   239  LYS239     -0.1245
     65  CA        -3.4850   15.0400   42.0780 C.3   239  LYS239      0.1561
     66  C         -3.4170   13.9670   40.9780 C.2   239  LYS239      0.2260
     67  O         -4.1860   13.0060   40.9870 O.2   239  LYS239     -0.2867
     68  CB        -4.7010   14.8330   42.9720 C.3   239  LYS239      0.0271
     69  CG        -4.4030   15.0630   44.4290 C.3   239  LYS239      0.0035
     70  CD        -5.5120   14.5000   45.2990 C.3   239  LYS239      0.0206
     71  CE        -5.0800   14.4280   46.7680 C.3   239  LYS239      0.1093
     72  NZ        -3.9450   13.4800   47.0150 N.3   239  LYS239     -0.1314
     73  N          2.7710   12.7980   37.0560 N.3   245  GLN245     -0.1245
     74  CA         3.2840   14.0410   37.6430 C.3   245  GLN245      0.1566
     75  C          4.7330   14.2050   37.2300 C.2   245  GLN245      0.2260
     76  O          5.1340   15.2540   36.7180 O.2   245  GLN245     -0.2867
     77  CB         3.2400   14.0170   39.1750 C.3   245  GLN245      0.0367
     78  CG         1.8530   14.0120   39.8090 C.3   245  GLN245      0.0905
     79  CD         1.3210   15.4110   40.1120 C.2   245  GLN245      0.2608
     80  OE1        0.9030   16.1380   39.2140 O.2   245  GLN245     -0.2717
     81  NE2        1.3120   15.7780   41.3870 N.am  245  GLN245     -0.0878
     82  N          7.0240   19.0290   41.0500 N.3   258  ASP258     -0.1225
     83  CA         5.5680   18.9190   41.2040 C.3   258  ASP258      0.1805
     84  C          5.1610   17.6920   41.9930 C.2   258  ASP258      0.2598
     85  O          4.1420   17.7120   42.7040 O.2   258  ASP258     -0.2718
     86  CB         4.8450   18.9220   39.8480 C.3   258  ASP258      0.1424
     87  CG         4.3860   20.3130   39.4240 C.2   258  ASP258      0.3668
     88  OD1        4.8700   21.3230   39.9820 O.co2 258  ASP258     -0.2456
     89  OD2        3.5370   20.4050   38.5160 O.co2 258  ASP258     -0.2456
     90  N          5.9330   16.6140   41.8770 N.am  259  PHE259     -0.1962
     91  CA         5.6010   15.4250   42.6450 C.3   259  PHE259      0.1771
     92  C          5.7560   15.8020   44.1170 C.2   259  PHE259      0.2619
     93  O          4.9320   15.4660   44.9580 O.2   259  PHE259     -0.2715
     94  CB         6.5330   14.2580   42.3120 C.3   259  PHE259      0.0574
     95  CG         6.3480   13.0700   43.2190 C.ar  259  PHE259     -0.0200
     96  CD1        5.1860   12.3080   43.1640 C.ar  259  PHE259     -0.0042
     97  CD2        7.2940   12.7670   44.1880 C.ar  259  PHE259     -0.0042
     98  CE1        4.9720   11.2820   44.0630 C.ar  259  PHE259     -0.0003
     99  CE2        7.0840   11.7370   45.0930 C.ar  259  PHE259     -0.0003
    100  CZ         5.9220   10.9980   45.0300 C.ar  259  PHE259     -0.0000
    101  N          6.7850   16.5870   44.3890 N.am  260  ALA260     -0.1963
    102  CA         7.0830   17.0120   45.7370 C.3   260  ALA260      0.1728
    103  C          6.1670   18.0760   46.3410 C.2   260  ALA260      0.2616
    104  O          5.9150   18.0530   47.5630 O.2   260  ALA260     -0.2715
    105  CB         8.5340   17.4990   45.7950 C.3   260  ALA260      0.0334
    106  N          5.7090   19.0260   45.5180 N.am  261  ALA261     -0.1963
    107  CA         4.9090   20.1390   46.0380 C.3   261  ALA261      0.1728
    108  C          4.1670   20.9220   44.9620 C.2   261  ALA261      0.2616
    109  O          4.2780   22.1560   44.8790 O.2   261  ALA261     -0.2715
    110  CB         5.8260   21.1050   46.8390 C.3   261  ALA261      0.0334
    111  N          3.3190   20.2110   44.2280 N.am  262  CYS262     -0.1954
    112  CA         2.5440   20.7700   43.1320 C.3   262  CYS262      0.1843
    113  C          1.7090   21.9930   43.5020 C.2   262  CYS262      0.2625
    114  O          1.8530   23.0420   42.8810 O.2   262  CYS262     -0.2714
    115  CB         1.6790   19.6570   42.5530 C.3   262  CYS262      0.0997
    116  SG         0.7200   20.1040   41.0950 S.3   262  CYS262     -0.0797
    117  N          0.8490   21.8540   44.5140 N.am  263  ASN263     -0.1958
    118  CA        -0.0090   22.9420   44.9560 C.3   263  ASN263      0.1819
    119  C          0.8180   24.1750   45.2680 C.2   263  ASN263      0.2621
    120  O          0.5560   25.2620   44.7740 O.2   263  ASN263     -0.2715
    121  CB        -0.7750   22.5720   46.2300 C.3   263  ASN263      0.1195
    122  CG        -1.8610   21.5470   46.0010 C.2   263  ASN263      0.2630
    123  OD1       -2.4090   21.4090   44.8900 O.2   263  ASN263     -0.2716
    124  ND2       -2.2180   20.8350   47.0690 N.am  263  ASN263     -0.0877
    125  N          1.8310   23.9800   46.1040 N.am  264  HIS264     -0.1973
    126  CA         2.7280   25.0370   46.5640 C.3   264  HIS264      0.1656
    127  C          3.3770   25.8070   45.3920 C.2   264  HIS264      0.2291
    128  O          3.4880   27.0410   45.3910 O.2   264  HIS264     -0.2864
    129  CB         3.7990   24.3950   47.4620 C.3   264  HIS264      0.0771
    130  CG         4.7340   25.3790   48.0950 C.ar  264  HIS264      0.0820
    131  ND1        4.2970   26.4070   48.8990 N.ar  264  HIS264     -0.2267
    132  CD2        6.0820   25.4910   48.0440 C.ar  264  HIS264      0.1154
    133  CE1        5.3310   27.1130   49.3140 C.ar  264  HIS264      0.1986
    134  NE2        6.4280   26.5780   48.8090 N.ar  264  HIS264     -0.2212
@<TRIPOS>BOND
     1    76    75    2
     2    73    74    1
     3    75    74    1
     4    74    77    1
     5    89    87   ar
     6    77    78    1
     7    80    79    2
     8    87    86    1
     9    87    88   ar
    10    78    79    1
    11    86    83    1
    12    79    81   am
    13    66    67    2
    14    66    65    1
    15    82    83    1
    16   116   115    1
    17    83    84    1
    18    64    65    1
    19    90    84   am
    20    90    91    1
    21    84    85    2
    22    65    68    1
    23    94    91    1
    24    94    95    1
    25   115   112    1
    26    91    92    1
    27   114   113    2
    28    68    69    1
    29   112   113    1
    30   112   111    1
    31    96    95   ar
    32    96    98   ar
    33    95    97   ar
    34   113   117   am
    35    98   100   ar
    36    92   101   am
    37    92    93    2
    38    97    99   ar
    39   111   108   am
    40   101   102    1
    41    69    70    1
    42   117   118    1
    43    58    57    2
    44   120   119    2
    45   109   108    2
    46   123   122    2
    47   118   119    1
    48   118   121    1
    49   108   107    1
    50    57    56    1
    51   100    99   ar
    52   119   125   am
    53    70    71    1
    54   128   127    2
    55   127   126    1
    56   106   107    1
    57   106   103   am
    58   102   105    1
    59   102   103    1
    60   122   121    1
    61   122   124   am
    62   107   110    1
    63   125   126    1
    64    63    61   ar
    65    60    59    1
    66    60    61    1
    67   103   104    2
    68    56    59    1
    69    56    55    1
    70   126   129    1
    71    71    72    1
    72    15    14    2
    73    61    62   ar
    74   129   130    1
    75    14    13    1
    76    18    16    1
    77   132   130   ar
    78   132   134   ar
    79   130   131   ar
    80    16    13    1
    81    16    17    1
    82     4     3    2
    83   134   133   ar
    84    20    21    1
    85    13    12    1
    86   131   133   ar
    87    24    21    1
    88    24    25    1
    89    21    22    1
    90     3    12   am
    91     3     2    1
    92    25    26   ar
    93    25    27   ar
    94    17    19    1
    95    53    51   ar
    96    53    54   ar
    97     1     2    1
    98    51    49   ar
    99     2     5    1
   100    22    23    2
   101    54    52   ar
   102    49    48    1
   103    49    50   ar
   104     5     6    1
   105    48    45    1
   106    52    50   ar
   107     6     8   ar
   108     6     7   ar
   109     8    10   ar
   110    39    38    2
   111    44    45    1
   112    45    46    1
   113    46    47    2
   114     7     9   ar
   115    10    11   ar
   116    31    30    2
   117    38    37    1
   118     9    11   ar
   119    40    37    1
   120    40    41    1
   121    37    36    1
   122    30    36   am
   123    30    29    1
   124    41    42    1
   125    41    43    1
   126    32    29    1
   127    32    33    1
   128    29    28    1
   129    35    33   am
   130    33    34    2
