@<TRIPOS>MOLECULE
tmp/1lpbB04.pdb
 116 112 0 0 0
SMALL
GASTEIGER

@<TRIPOS>ATOM
      1  N         12.3940   30.2320   47.8890 N.3    77  GLY77      -0.1210
      2  CA        12.2560   29.6710   49.2130 C.3    77  GLY77       0.1956
      3  C         13.3230   28.6340   49.5060 C.2    77  GLY77       0.2611
      4  O         14.4400   28.6530   48.9610 O.2    77  GLY77      -0.2717
      5  N         12.9360   27.7290   50.3960 N.am   78  PHE78      -0.1976
      6  CA        13.7240   26.6260   50.8790 C.3    78  PHE78       0.1639
      7  C         14.1530   25.7120   49.7290 C.2    78  PHE78       0.2290
      8  O         13.4060   25.5090   48.7780 O.2    78  PHE78      -0.2864
      9  CB        12.8570   25.8750   51.8600 C.3    78  PHE78       0.0560
     10  CG        13.5570   24.8170   52.6230 C.ar   78  PHE78      -0.0200
     11  CD1       14.7230   25.0980   53.3310 C.ar   78  PHE78      -0.0042
     12  CD2       13.0010   23.5460   52.7130 C.ar   78  PHE78      -0.0042
     13  CE1       15.3220   24.1260   54.1280 C.ar   78  PHE78      -0.0003
     14  CE2       13.5940   22.5770   53.5070 C.ar   78  PHE78      -0.0003
     15  CZ        14.7610   22.8710   54.2200 C.ar   78  PHE78      -0.0000
     16  N         15.6190   25.9440   47.0740 N.3    80  ASP80      -0.1239
     17  CA        15.8300   26.5490   45.7540 C.3    80  ASP80       0.1674
     18  C         17.0310   27.4820   45.6960 C.2    80  ASP80       0.2266
     19  O         17.6580   27.7780   46.7110 O.2    80  ASP80      -0.2867
     20  CB        14.5970   27.3490   45.3140 C.3    80  ASP80       0.1410
     21  CG        13.6730   26.5790   44.4060 C.2    80  ASP80       0.3668
     22  OD1       13.9930   25.4500   43.9900 O.co2  80  ASP80      -0.2456
     23  OD2       12.6070   27.1190   44.0880 O.co2  80  ASP80      -0.2456
     24  N         15.4460   23.2650   57.8420 N.3   115  TYR115     -0.1241
     25  CA        14.3740   24.2540   57.7410 C.3   115  TYR115      0.1605
     26  C         14.3160   25.3020   58.8630 C.2   115  TYR115      0.2264
     27  O         14.0970   26.4800   58.6040 O.2   115  TYR115     -0.2867
     28  CB        13.0280   23.5530   57.6020 C.3   115  TYR115      0.0534
     29  CG        11.8880   24.4990   57.4620 C.ar  115  TYR115     -0.0201
     30  CD1       11.6650   25.1600   56.2550 C.ar  115  TYR115     -0.0009
     31  CD2       11.0700   24.8050   58.5620 C.ar  115  TYR115     -0.0009
     32  CE1       10.6610   26.1150   56.1430 C.ar  115  TYR115      0.0417
     33  CE2       10.0620   25.7580   58.4610 C.ar  115  TYR115      0.0417
     34  CZ         9.8690   26.4070   57.2430 C.ar  115  TYR115      0.1957
     35  OH         8.8900   27.3480   57.1130 O.3   115  TYR115     -0.2866
     36  N          8.4790   33.7870   47.2180 N.3   152  HIS152     -0.1226
     37  CA         7.8030   32.5140   47.2730 C.3   152  HIS152      0.1752
     38  C          8.1620   31.7640   48.5360 C.2   152  HIS152      0.2597
     39  O          9.3310   31.5680   48.8220 O.2   152  HIS152     -0.2718
     40  CB         8.1850   31.6770   46.0510 C.3   152  HIS152      0.0759
     41  CG         7.5930   30.3030   46.0550 C.ar  152  HIS152      0.0818
     42  ND1        8.3640   29.1610   46.1250 N.ar  152  HIS152     -0.2268
     43  CD2        6.3060   29.8860   46.0100 C.ar  152  HIS152      0.1154
     44  CE1        7.5770   28.1020   46.1260 C.ar  152  HIS152      0.1986
     45  NE2        6.3230   28.5160   46.0590 N.ar  152  HIS152     -0.2212
     46  N          7.1540   31.2910   49.2580 N.am  153  SER153     -0.1938
     47  CA         7.3520   30.5300   50.5020 C.3   153  SER153      0.2055
     48  C          8.1350   31.3420   51.5330 C.2   153  SER153      0.2642
     49  O          7.6640   32.4020   51.9950 O.2   153  SER153     -0.2714
     50  CB         8.0120   29.1620   50.2260 C.3   153  SER153      0.2130
     51  OG         7.6270   28.1490   51.1360 O.3   153  SER153     -0.2179
     52  N          9.3230   30.8570   51.8950 N.am  154  LEU154     -0.1977
     53  CA        10.1780   31.5200   52.8780 C.3   154  LEU154      0.1596
     54  C         10.5110   32.9360   52.3880 C.2   154  LEU154      0.2287
     55  O         10.5580   33.8950   53.1640 O.2   154  LEU154     -0.2864
     56  CB        11.4360   30.6830   53.0730 C.3   154  LEU154      0.0297
     57  CG        11.7250   30.1950   54.4900 C.3   154  LEU154      0.0022
     58  CD1       10.4890   29.6900   55.1870 C.3   154  LEU154      0.0001
     59  CD2       12.7850   29.1150   54.4080 C.3   154  LEU154      0.0001
     60  N          5.1890   30.4730   53.4840 N.3   179  ALA179     -0.1245
     61  CA         5.3680   29.2480   54.2620 C.3   179  ALA179      0.1562
     62  C          4.5330   29.3450   55.5300 C.2   179  ALA179      0.2260
     63  O          4.3970   30.4340   56.0790 O.2   179  ALA179     -0.2867
     64  CB         6.8410   29.0830   54.6360 C.3   179  ALA179      0.0290
     65  N          4.7570   26.8080   58.6490 N.3   181  PRO181     -0.2116
     66  CA         5.5420   26.4820   59.8570 C.3   181  PRO181      0.1372
     67  C          6.4710   27.6050   60.2890 C.2   181  PRO181      0.2244
     68  O          7.1910   28.1640   59.4780 O.2   181  PRO181     -0.2868
     69  CB         6.3640   25.2500   59.4400 C.3   181  PRO181      0.0268
     70  CG         5.6920   24.7430   58.2060 C.3   181  PRO181      0.0207
     71  CD         5.2210   25.9830   57.5180 C.3   181  PRO181      0.0892
     72  N         -0.0860   22.0350   58.0060 N.3   210  ILE210     -0.1245
     73  CA         1.1900   21.3440   57.7780 C.3   210  ILE210      0.1561
     74  C          1.0670   19.9160   58.3640 C.2   210  ILE210      0.2260
     75  O          1.5320   18.9600   57.7510 O.2   210  ILE210     -0.2867
     76  CB         2.4460   22.1560   58.3170 C.3   210  ILE210      0.0252
     77  CG1        3.7570   21.5670   57.7630 C.3   210  ILE210      0.0019
     78  CG2        2.4930   22.1860   59.8540 C.3   210  ILE210      0.0019
     79  CD1        4.0680   21.8900   56.2900 C.3   210  ILE210      0.0001
     80  N          0.2380   18.3250   55.5670 N.3   214  LEU214     -0.1245
     81  CA         1.4560   18.7050   54.8690 C.3   214  LEU214      0.1561
     82  C          1.2660   19.8550   53.8650 C.2   214  LEU214      0.2260
     83  O          1.8820   19.8770   52.7850 O.2   214  LEU214     -0.2867
     84  CB         2.0920   17.4890   54.1700 C.3   214  LEU214      0.0270
     85  CG         3.1180   16.6230   54.9170 C.3   214  LEU214      0.0019
     86  CD1        4.4570   17.3220   55.0220 C.3   214  LEU214      0.0001
     87  CD2        2.5980   16.2340   56.2870 C.3   214  LEU214      0.0001
     88  N          2.1860   23.1800   52.8050 N.3   216  PHE216     -0.1241
     89  CA         3.3090   24.0770   53.0230 C.3   216  PHE216      0.1605
     90  C          3.0030   25.5330   53.2150 C.2   216  PHE216      0.2264
     91  O          3.7930   26.2350   53.8060 O.2   216  PHE216     -0.2867
     92  CB         4.3040   23.9480   51.8670 C.3   216  PHE216      0.0534
     93  CG         4.8290   22.5550   51.6700 C.ar  216  PHE216     -0.0203
     94  CD1        5.2750   21.8060   52.7500 C.ar  216  PHE216     -0.0042
     95  CD2        4.9010   22.0020   50.4050 C.ar  216  PHE216     -0.0042
     96  CE1        5.7920   20.5270   52.5740 C.ar  216  PHE216     -0.0003
     97  CE2        5.4160   20.7190   50.2090 C.ar  216  PHE216     -0.0003
     98  CZ         5.8630   19.9840   51.3000 C.ar  216  PHE216     -0.0000
     99  N          1.8310   23.9800   46.1040 N.3   264  HIS264     -0.1226
    100  CA         2.7280   25.0370   46.5640 C.3   264  HIS264      0.1752
    101  C          3.3770   25.8070   45.3920 C.2   264  HIS264      0.2595
    102  O          3.4880   27.0410   45.3910 O.2   264  HIS264     -0.2718
    103  CB         3.7990   24.3950   47.4620 C.3   264  HIS264      0.0759
    104  CG         4.7340   25.3790   48.0950 C.ar  264  HIS264      0.0818
    105  ND1        4.2970   26.4070   48.8990 N.ar  264  HIS264     -0.2268
    106  CD2        6.0820   25.4910   48.0440 C.ar  264  HIS264      0.1154
    107  CE1        5.3310   27.1130   49.3140 C.ar  264  HIS264      0.1986
    108  NE2        6.4280   26.5780   48.8090 N.ar  264  HIS264     -0.2212
    109  N          3.8260   25.0740   44.3970 N.am  265  LEU265     -0.1980
    110  CA         4.4670   25.7180   43.2820 C.3   265  LEU265      0.1596
    111  C          3.4730   26.3290   42.3020 C.2   265  LEU265      0.2287
    112  O          3.8790   27.0580   41.4150 O.2   265  LEU265     -0.2864
    113  CB         5.3900   24.7220   42.5890 C.3   265  LEU265      0.0297
    114  CG         6.3660   24.0550   43.5760 C.3   265  LEU265      0.0022
    115  CD1        7.1680   22.8950   42.9350 C.3   265  LEU265      0.0001
    116  CD2        7.3080   25.1210   44.1210 C.3   265  LEU265      0.0001
@<TRIPOS>BOND
     1   112   111    2
     2   111   110    1
     3   113   110    1
     4   113   114    1
     5   115   114    1
     6   110   109    1
     7   114   116    1
     8    22    21   ar
     9    23    21   ar
    10   109   101   am
    11    21    20    1
    12    20    17    1
    13   102   101    2
    14   101   100    1
    15    18    17    1
    16    18    19    2
    17    17    16    1
    18    43    41   ar
    19    43    45   ar
    20    40    41    1
    21    40    37    1
    22    41    42   ar
    23    45    44   ar
    24    99   100    1
    25    42    44   ar
    26   100   103    1
    27    36    37    1
    28    37    38    1
    29   103   104    1
    30     1     2    1
    31   106   104   ar
    32   106   108   ar
    33   104   105   ar
    34    38    39    2
    35    38    46   am
    36     8     7    2
    37   108   107   ar
    38   105   107   ar
    39     4     3    2
    40     2     3    1
    41    46    47    1
    42     3     5   am
    43     7     6    1
    44    97    95   ar
    45    97    98   ar
    46    50    47    1
    47    50    51    1
    48     5     6    1
    49    95    93   ar
    50    47    48    1
    51     6     9    1
    52    98    96   ar
    53    48    52   am
    54    48    49    2
    55    93    92    1
    56    93    94   ar
    57     9    10    1
    58    92    89    1
    59    52    53    1
    60    54    53    1
    61    54    55    2
    62    96    94   ar
    63    10    12   ar
    64    10    11   ar
    65    12    14   ar
    66    83    82    2
    67    88    89    1
    68    53    56    1
    69    89    90    1
    70    56    57    1
    71    90    91    2
    72    11    13   ar
    73    60    61    1
    74    14    15   ar
    75    82    81    1
    76    13    15   ar
    77    84    81    1
    78    84    85    1
    79    61    64    1
    80    61    62    1
    81    59    57    1
    82    57    58    1
    83    81    80    1
    84    85    86    1
    85    85    87    1
    86    62    63    2
    87    32    30   ar
    88    32    34   ar
    89    30    29   ar
    90    79    77    1
    91    35    34    1
    92    34    33   ar
    93    29    28    1
    94    29    31   ar
    95    71    70    1
    96    71    65    1
    97    28    25    1
    98    25    24    1
    99    25    26    1
   100    75    74    2
   101    77    76    1
   102    73    72    1
   103    73    76    1
   104    73    74    1
   105    70    69    1
   106    76    78    1
   107    33    31   ar
   108    27    26    2
   109    65    66    1
   110    69    66    1
   111    68    67    2
   112    66    67    1
