@<TRIPOS>MOLECULE
tmp/1lpbB03.pdb
 108 102 0 0 0
SMALL
GASTEIGER

@<TRIPOS>ATOM
      1  N         -2.4820   14.1040   40.0430 N.3   240  LYS240     -0.1245
      2  CA        -2.3480   13.1020   38.9930 C.3   240  LYS240      0.1561
      3  C         -1.5750   11.9340   39.6350 C.2   240  LYS240      0.2260
      4  O         -0.9750   12.0960   40.7000 O.2   240  LYS240     -0.2867
      5  CB        -1.5310   13.6490   37.8100 C.3   240  LYS240      0.0271
      6  CG        -2.0530   14.8760   37.0870 C.3   240  LYS240      0.0035
      7  CD        -0.9530   15.3520   36.1380 C.3   240  LYS240      0.0206
      8  CE        -1.4110   16.4220   35.1550 C.3   240  LYS240      0.1093
      9  NZ        -1.5680   17.7690   35.7720 N.3   240  LYS240     -0.1314
     10  N          5.6580   14.8210   33.1770 N.3   248  ASP248     -0.1225
     11  CA         4.7170   15.7970   32.6510 C.3   248  ASP248      0.1805
     12  C          5.3680   16.5770   31.5110 C.2   248  ASP248      0.2598
     13  O          6.5920   16.5860   31.3580 O.2   248  ASP248     -0.2718
     14  CB         4.2180   16.7260   33.7650 C.3   248  ASP248      0.1424
     15  CG         2.7420   17.0900   33.6140 C.2   248  ASP248      0.3668
     16  OD1        2.4350   18.0150   32.8320 O.co2 248  ASP248     -0.2456
     17  OD2        1.8870   16.4620   34.2860 O.co2 248  ASP248     -0.2456
     18  N          4.5230   17.2210   30.7140 N.am  249  ILE249     -0.1966
     19  CA         4.9070   18.0100   29.5390 C.3   249  ILE249      0.1727
     20  C          6.1190   18.9510   29.6020 C.2   249  ILE249      0.2616
     21  O          6.6000   19.3790   28.5530 O.2   249  ILE249     -0.2715
     22  CB         3.6880   18.8020   29.0330 C.3   249  ILE249      0.0290
     23  CG1        3.2350   19.8110   30.1050 C.3   249  ILE249      0.0022
     24  CG2        2.5510   17.8260   28.6910 C.3   249  ILE249      0.0023
     25  CD1        1.8720   20.4490   29.8780 C.3   249  ILE249      0.0001
     26  N          6.6190   19.2560   30.8050 N.am  250  ASP250     -0.1971
     27  CA         7.7780   20.1550   30.9880 C.3   250  ASP250      0.1709
     28  C          9.1190   19.5020   31.3200 C.2   250  ASP250      0.2293
     29  O         10.0760   20.1950   31.6580 O.2   250  ASP250     -0.2864
     30  CB         7.4900   21.1850   32.0780 C.3   250  ASP250      0.1436
     31  CG         6.6920   22.3450   31.5760 C.2   250  ASP250      0.3671
     32  OD1        5.4600   22.2030   31.4850 O.co2 250  ASP250     -0.2456
     33  OD2        7.2960   23.3960   31.2720 O.co2 250  ASP250     -0.2456
     34  N         10.7780   19.4950   36.2420 N.3   254  GLU254     -0.1245
     35  CA         9.5540   20.1880   36.6000 C.3   254  GLU254      0.1567
     36  C          8.6040   19.1900   37.2610 C.2   254  GLU254      0.2260
     37  O          8.0380   19.4620   38.3470 O.2   254  GLU254     -0.2867
     38  CB         8.9130   20.7780   35.3550 C.3   254  GLU254      0.0388
     39  CG         9.5180   22.0660   34.9180 C.3   254  GLU254      0.1160
     40  CD         9.1290   23.2110   35.8260 C.2   254  GLU254      0.3649
     41  OE1        7.9830   23.7270   35.7310 O.co2 254  GLU254     -0.2457
     42  OE2        9.9820   23.6010   36.6380 O.co2 254  GLU254     -0.2457
     43  N          7.0240   19.0290   41.0500 N.3   258  ASP258     -0.1239
     44  CA         5.5680   18.9190   41.2040 C.3   258  ASP258      0.1674
     45  C          5.1610   17.6920   41.9930 C.2   258  ASP258      0.2266
     46  O          4.1420   17.7120   42.7040 O.2   258  ASP258     -0.2867
     47  CB         4.8450   18.9220   39.8480 C.3   258  ASP258      0.1410
     48  CG         4.3860   20.3130   39.4240 C.2   258  ASP258      0.3668
     49  OD1        4.8700   21.3230   39.9820 O.co2 258  ASP258     -0.2456
     50  OD2        3.5370   20.4050   38.5160 O.co2 258  ASP258     -0.2456
     51  N          2.1780   26.0820   42.4780 N.3   266  ARG266     -0.1245
     52  CA         1.1920   26.6210   41.5550 C.3   266  ARG266      0.1563
     53  C          1.1030   28.1320   41.6550 C.2   266  ARG266      0.2260
     54  O          0.7940   28.8120   40.6580 O.2   266  ARG266     -0.2867
     55  CB        -0.1990   26.0110   41.7740 C.3   266  ARG266      0.0307
     56  CG        -0.4410   24.6410   41.1090 C.3   266  ARG266      0.0489
     57  CD        -0.0460   24.5960   39.6260 C.3   266  ARG266      0.2205
     58  NE        -0.7640   23.5620   38.8570 N.pl3 266  ARG266     -0.0865
     59  CZ        -0.1910   22.5290   38.2430 C.cat 266  ARG266      0.5346
     60  NH1        1.1210   22.3450   38.3200 N.pl3 266  ARG266      0.1354
     61  NH2       -0.9380   21.6640   37.5680 N.pl3 266  ARG266      0.1354
     62  N          3.3920   29.7050   39.3550 N.3   269  LYS269     -0.1245
     63  CA         2.9910   29.3120   38.0060 C.3   269  LYS269      0.1561
     64  C          1.7900   30.1580   37.5890 C.2   269  LYS269      0.2260
     65  O          1.6420   30.5130   36.4140 O.2   269  LYS269     -0.2867
     66  CB         2.6190   27.8320   37.9540 C.3   269  LYS269      0.0271
     67  CG         3.7800   26.8620   37.9610 C.3   269  LYS269      0.0035
     68  CD         3.2230   25.4530   37.8890 C.3   269  LYS269      0.0206
     69  CE         4.2640   24.4390   37.4740 C.3   269  LYS269      0.1093
     70  NZ         5.4270   24.4350   38.3760 N.3   269  LYS269     -0.1314
     71  N         -5.8860   23.6510   34.9590 N.3   332  ASP332     -0.1225
     72  CA        -5.0690   22.5990   35.5650 C.3   332  ASP332      0.1805
     73  C         -3.6990   22.4800   34.8820 C.2   332  ASP332      0.2598
     74  O         -2.8790   21.6400   35.2530 O.2   332  ASP332     -0.2718
     75  CB        -5.7900   21.2590   35.4700 C.3   332  ASP332      0.1424
     76  CG        -5.7240   20.6740   34.0800 C.2   332  ASP332      0.3668
     77  OD1       -6.2920   21.3060   33.1650 O.co2 332  ASP332     -0.2456
     78  OD2       -5.0680   19.6170   33.8920 O.co2 332  ASP332     -0.2456
     79  N         -3.4740   23.2910   33.8540 N.am  333  ALA333     -0.1966
     80  CA        -2.2130   23.2630   33.1230 C.3   333  ALA333      0.1728
     81  C         -2.0350   24.6330   32.4980 C.2   333  ALA333      0.2617
     82  O         -3.0230   25.3620   32.3710 O.2   333  ALA333     -0.2715
     83  CB        -2.2300   22.1700   32.0390 C.3   333  ALA333      0.0334
     84  N         -0.7990   24.9810   32.1080 N.am  334  SER334     -0.1936
     85  CA        -0.5230   26.2790   31.5360 C.3   334  SER334      0.2055
     86  C         -1.5210   26.8300   30.5780 C.2   334  SER334      0.2643
     87  O         -1.9030   26.2530   29.5620 O.2   334  SER334     -0.2714
     88  CB         0.8770   26.5040   31.0360 C.3   334  SER334      0.2130
     89  OG         1.0330   27.9090   30.8280 O.3   334  SER334     -0.2179
     90  N         -1.7030   28.0910   30.9100 N.am  335  ASN335     -0.1957
     91  CA        -2.6470   29.0790   30.4670 C.3   335  ASN335      0.1819
     92  C         -3.7880   28.7240   31.3630 C.2   335  ASN335      0.2621
     93  O         -4.7210   27.9980   31.0100 O.2   335  ASN335     -0.2715
     94  CB        -3.0470   29.1550   29.0400 C.3   335  ASN335      0.1195
     95  CG        -3.6770   30.4850   28.7820 C.2   335  ASN335      0.2630
     96  OD1       -3.6040   31.3540   29.6480 O.2   335  ASN335     -0.2716
     97  ND2       -4.3280   30.6580   27.6490 N.am  335  ASN335     -0.0877
     98  N         -3.4580   29.0070   32.6150 N.am  336  PHE336     -0.1974
     99  CA        -4.2790   28.8020   33.7660 C.3   336  PHE336      0.1639
    100  C         -5.4300   29.7980   33.7700 C.2   336  PHE336      0.2290
    101  O         -6.2310   29.8030   34.7000 O.2   336  PHE336     -0.2864
    102  CB        -3.4030   29.0210   35.0060 C.3   336  PHE336      0.0560
    103  CG        -2.3420   27.9690   35.2040 C.ar  336  PHE336     -0.0200
    104  CD1       -2.6800   26.6990   35.6610 C.ar  336  PHE336     -0.0042
    105  CD2       -1.0070   28.2560   34.9740 C.ar  336  PHE336     -0.0042
    106  CE1       -1.6970   25.7340   35.8870 C.ar  336  PHE336     -0.0003
    107  CE2       -0.0170   27.2980   35.1950 C.ar  336  PHE336     -0.0003
    108  CZ        -0.3610   26.0420   35.6520 C.ar  336  PHE336     -0.0000
@<TRIPOS>BOND
     1    97    95   am
     2    21    20    2
     3    24    22    1
     4    95    94    1
     5    95    96    2
     6    22    19    1
     7    22    23    1
     8    94    91    1
     9    19    20    1
    10    19    18    1
    11    87    86    2
    12    20    26   am
    13    25    23    1
    14    91    90    1
    15    91    92    1
    16    86    90   am
    17    86    85    1
    18    18    12   am
    19    26    27    1
    20    89    88    1
    21    27    28    1
    22    27    30    1
    23    93    92    2
    24    88    85    1
    25    33    31   ar
    26    28    29    2
    27    13    12    2
    28    92    98   am
    29    32    31   ar
    30    12    11    1
    31    85    84    1
    32    31    30    1
    33    83    80    1
    34    84    81   am
    35    82    81    2
    36    81    80    1
    37    98    99    1
    38    11    10    1
    39    11    14    1
    40    16    15   ar
    41    80    79    1
    42    77    76   ar
    43    15    14    1
    44    15    17   ar
    45    99   100    1
    46    99   102    1
    47   100   101    2
    48    79    73   am
    49    78    76   ar
    50    76    75    1
    51    73    74    2
    52    73    72    1
    53    39    38    1
    54    39    40    1
    55    71    72    1
    56   105   107   ar
    57   105   103   ar
    58   102   103    1
    59     8     9    1
    60     8     7    1
    61   107   108   ar
    62   103   104   ar
    63    38    35    1
    64    75    72    1
    65   108   106   ar
    66   104   106   ar
    67    41    40   ar
    68    40    42   ar
    69     7     6    1
    70    34    35    1
    71    65    64    2
    72    35    36    1
    73     6     5    1
    74    36    37    2
    75    69    68    1
    76    69    70    1
    77    61    59    1
    78    64    63    1
    79     5     2    1
    80    68    67    1
    81    66    67    1
    82    66    63    1
    83    63    62    1
    84    59    60    1
    85    59    58    2
    86    50    48   ar
    87    58    57    1
    88     2     3    1
    89     2     1    1
    90    48    47    1
    91    48    49   ar
    92    57    56    1
    93     3     4    2
    94    47    44    1
    95    54    53    2
    96    43    44    1
    97    56    55    1
    98    44    45    1
    99    52    53    1
   100    52    55    1
   101    52    51    1
   102    45    46    2
