@<TRIPOS>MOLECULE
tmp/1lpbA00.pdb
 75 72 0 0 0
SMALL
GASTEIGER

@<TRIPOS>ATOM
      1  N         -1.1090   10.1640   31.6990 N.3    11  LEU11      -0.1231
      2  CA        -0.6490    9.2920   30.6040 C.3    11  LEU11       0.1693
      3  C         -1.6340    8.1460   30.3460 C.2    11  LEU11       0.2592
      4  O         -2.3150    7.6590   31.2660 O.2    11  LEU11      -0.2718
      5  CB         0.7160    8.6860   30.9140 C.3    11  LEU11       0.0284
      6  CG         1.9330    9.5840   31.0350 C.3    11  LEU11       0.0019
      7  CD1        2.7610    9.1040   32.2020 C.3    11  LEU11       0.0001
      8  CD2        2.7290    9.5880   29.7550 C.3    11  LEU11       0.0001
      9  N         -1.6860    7.6900   29.1060 N.am   12  CYS12      -0.1956
     10  CA        -2.5720    6.6080   28.7730 C.3    12  CYS12       0.1843
     11  C         -1.9850    5.8340   27.6250 C.2    12  CYS12       0.2625
     12  O         -1.1030    6.3110   26.9160 O.2    12  CYS12      -0.2714
     13  CB        -3.9540    7.1380   28.4030 C.3    12  CYS12       0.0997
     14  SG        -3.8540    8.5640   27.3000 S.3    12  CYS12      -0.0797
     15  N         -2.4980    4.6230   27.4700 N.am   13  LEU13      -0.1977
     16  CA        -2.0960    3.7010   26.4360 C.3    13  LEU13       0.1596
     17  C         -3.2430    3.5770   25.4580 C.2    13  LEU13       0.2287
     18  O         -3.0250    3.3220   24.2760 O.2    13  LEU13      -0.2864
     19  CB        -1.7970    2.3320   27.0630 C.3    13  LEU13       0.0297
     20  CG        -0.3860    2.0870   27.6160 C.3    13  LEU13       0.0022
     21  CD1        0.6290    2.1990   26.5020 C.3    13  LEU13       0.0001
     22  CD2       -0.0330    3.0600   28.7170 C.3    13  LEU13       0.0001
     23  N         -1.7540   12.2300   21.4290 N.3    25  HIS25      -0.1241
     24  CA        -0.3490   12.5780   21.3650 C.3    25  HIS25       0.1621
     25  C         -0.1400   13.3220   20.0540 C.2    25  HIS25       0.2264
     26  O         -0.8520   13.0790   19.0780 O.2    25  HIS25      -0.2867
     27  CB         0.5950   11.3780   21.5660 C.3    25  HIS25       0.0745
     28  CG         0.5630   10.3560   20.4710 C.ar   25  HIS25       0.0817
     29  ND1        1.6130    9.4880   20.2430 N.ar   25  HIS25      -0.2268
     30  CD2       -0.3860   10.0470   19.5570 C.ar   25  HIS25       0.1154
     31  CE1        1.3150    8.6910   19.2340 C.ar   25  HIS25       0.1986
     32  NE2        0.1070    9.0080   18.7990 N.ar   25  HIS25      -0.2212
     33  N          4.2210   10.6800   16.4500 N.3    28  ILE28      -0.1231
     34  CA         4.3400    9.2250   16.5580 C.3    28  ILE28       0.1692
     35  C          5.2330    8.7750   17.7280 C.2    28  ILE28       0.2592
     36  O          4.8420    7.9410   18.5460 O.2    28  ILE28      -0.2718
     37  CB         4.7880    8.6030   15.1850 C.3    28  ILE28       0.0266
     38  CG1        4.8710    7.0860   15.2770 C.3    28  ILE28       0.0019
     39  CG2        6.1160    9.1920   14.7190 C.3    28  ILE28       0.0020
     40  CD1        3.5950    6.4600   15.7660 C.3    28  ILE28       0.0001
     41  N          6.4090    9.3710   17.8400 N.am   29  LEU29      -0.1966
     42  CA         7.3180    9.0160   18.9150 C.3    29  LEU29       0.1728
     43  C          7.2030   10.0270   20.0540 C.2    29  LEU29       0.2617
     44  O          8.0560   10.9120   20.2100 O.2    29  LEU29      -0.2715
     45  CB         8.7530    8.9390   18.3850 C.3    29  LEU29       0.0311
     46  CG         9.0420    7.7260   17.5000 C.3    29  LEU29       0.0022
     47  CD1       10.3110    7.9380   16.6960 C.3    29  LEU29       0.0001
     48  CD2        9.1470    6.4880   18.3610 C.3    29  LEU29       0.0001
     49  N          6.1090    9.9300   20.8040 N.am   30  SER30      -0.1936
     50  CA         5.8600   10.8110   21.9400 C.3    30  SER30       0.2055
     51  C          4.7280   10.2330   22.7810 C.2    30  SER30       0.2643
     52  O          3.7830    9.6260   22.2520 O.2    30  SER30      -0.2714
     53  CB         5.5240   12.2310   21.4790 C.3    30  SER30       0.2130
     54  OG         4.3870   12.2460   20.6390 O.3    30  SER30      -0.2179
     55  N          4.8420   10.4230   24.0930 N.am   31  LEU31      -0.1963
     56  CA         3.8800    9.9160   25.0570 C.3    31  LEU31       0.1728
     57  C          2.4960   10.5080   24.9040 C.2    31  LEU31       0.2616
     58  O          2.3550   11.6730   24.5780 O.2    31  LEU31      -0.2715
     59  CB         4.4180   10.1810   26.4420 C.3    31  LEU31       0.0311
     60  CG         5.7200    9.4310   26.6700 C.3    31  LEU31       0.0022
     61  CD1        6.2750    9.8260   28.0150 C.3    31  LEU31       0.0001
     62  CD2        5.4660    7.9160   26.5770 C.3    31  LEU31       0.0001
     63  N          1.4630    9.7130   25.1440 N.am   32  SER32      -0.1950
     64  CA         0.1090   10.2240   24.9910 C.3    32  SER32       0.1924
     65  C         -0.6190   10.3330   26.3160 C.2    32  SER32       0.2314
     66  O         -0.4340    9.4990   27.2000 O.2    32  SER32      -0.2863
     67  CB        -0.6750    9.3730   23.9810 C.3    32  SER32       0.2116
     68  OG        -0.9450    8.0680   24.4560 O.3    32  SER32      -0.2180
     69  N         -5.5190    5.6030   20.0790 N.3    52  VAL52      -0.1245
     70  CA        -5.0300    6.9490   20.3490 C.3    52  VAL52       0.1561
     71  C         -5.2400    7.8220   19.1170 C.2    52  VAL52       0.2260
     72  O         -5.4480    7.3090   18.0040 O.2    52  VAL52      -0.2867
     73  CB        -3.5340    6.9940   20.7940 C.3    52  VAL52       0.0252
     74  CG1       -3.2480    5.9030   21.8110 C.3    52  VAL52       0.0019
     75  CG2       -2.6020    6.9130   19.6090 C.3    52  VAL52       0.0019
@<TRIPOS>BOND
     1    39    37    1
     2    37    38    1
     3    37    34    1
     4    38    40    1
     5    33    34    1
     6    34    35    1
     7    47    46    1
     8    46    48    1
     9    46    45    1
    10    35    41   am
    11    35    36    2
    12    41    42    1
    13    72    71    2
    14    45    42    1
    15    32    31   ar
    16    32    30   ar
    17    42    43    1
    18    26    25    2
    19    71    70    1
    20    31    29   ar
    21    30    28   ar
    22    75    73    1
    23    25    24    1
    24    43    44    2
    25    43    49   am
    26    69    70    1
    27    29    28   ar
    28    70    73    1
    29    28    27    1
    30    54    53    1
    31    73    74    1
    32    49    50    1
    33    24    23    1
    34    24    27    1
    35    53    50    1
    36    50    51    1
    37    52    51    2
    38    51    55   am
    39    67    68    1
    40    67    64    1
    41    55    56    1
    42    18    17    2
    43    58    57    2
    44    57    56    1
    45    57    63   am
    46    64    63    1
    47    64    65    1
    48    56    59    1
    49    17    16    1
    50    65    66    2
    51    16    19    1
    52    16    15    1
    53    59    60    1
    54    21    20    1
    55    62    60    1
    56    60    61    1
    57    12    11    2
    58    19    20    1
    59    14    13    1
    60    15    11   am
    61    20    22    1
    62    11    10    1
    63    13    10    1
    64    10     9    1
    65     9     3   am
    66     8     6    1
    67     3     2    1
    68     3     4    2
    69     2     5    1
    70     2     1    1
    71     5     6    1
    72     6     7    1
