@<TRIPOS>MOLECULE
tmp/1lpbA01.pdb
 91 88 0 0 0
SMALL
GASTEIGER

@<TRIPOS>ATOM
      1  N         -7.5080   14.3450   32.3640 N.3     8  GLU8       -0.1231
      2  CA        -6.7750   14.9590   31.2790 C.3     8  GLU8        0.1699
      3  C         -5.3340   15.2060   31.7440 C.2     8  GLU8        0.2592
      4  O         -5.0960   15.4650   32.9290 O.2     8  GLU8       -0.2718
      5  CB        -7.4990   16.2260   30.8270 C.3     8  GLU8        0.0402
      6  CG        -8.8800   15.9250   30.2200 C.3     8  GLU8        0.1161
      7  CD       -10.0500   16.0730   31.2080 C.2     8  GLU8        0.3649
      8  OE1      -10.0730   17.0770   31.9700 O.co2   8  GLU8       -0.2457
      9  OE2      -10.9690   15.2100   31.2010 O.co2   8  GLU8       -0.2457
     10  N         -4.3730   15.0000   30.8480 N.am    9  GLY9       -0.1957
     11  CA        -2.9840   15.1820   31.2090 C.3     9  GLY9        0.1869
     12  C         -2.3470   13.9470   31.8200 C.2     9  GLY9        0.2309
     13  O         -1.1200   13.8950   31.9840 O.2     9  GLY9       -0.2863
     14  N         -4.4150   11.0830   23.6410 N.3    24  GLN24      -0.1231
     15  CA        -3.8640   11.7960   22.5050 C.3    24  GLN24       0.1698
     16  C         -2.3750   12.0590   22.5870 C.2    24  GLN24       0.2592
     17  O         -1.7910   12.0480   23.6660 O.2    24  GLN24      -0.2718
     18  CB        -4.6360   13.1340   22.3860 C.3    24  GLN24       0.0381
     19  CG        -4.5280   13.9270   21.0710 C.3    24  GLN24       0.0905
     20  CD        -3.5170   15.0760   21.1090 C.2    24  GLN24       0.2608
     21  OE1       -2.7460   15.2110   22.0380 O.2    24  GLN24      -0.2717
     22  NE2       -3.5050   15.8800   20.0660 N.am   24  GLN24      -0.0878
     23  N         -1.7540   12.2300   21.4290 N.am   25  HIS25      -0.1962
     24  CA        -0.3490   12.5780   21.3650 C.3    25  HIS25       0.1787
     25  C         -0.1400   13.3220   20.0540 C.2    25  HIS25       0.2620
     26  O         -0.8520   13.0790   19.0780 O.2    25  HIS25      -0.2715
     27  CB         0.5950   11.3780   21.5660 C.3    25  HIS25       0.0785
     28  CG         0.5630   10.3560   20.4710 C.ar   25  HIS25       0.0821
     29  ND1        1.6130    9.4880   20.2430 N.ar   25  HIS25      -0.2267
     30  CD2       -0.3860   10.0470   19.5570 C.ar   25  HIS25       0.1154
     31  CE1        1.3150    8.6910   19.2340 C.ar   25  HIS25       0.1986
     32  NE2        0.1070    9.0080   18.7990 N.ar   25  HIS25      -0.2212
     33  N          0.7760   14.2830   20.0640 N.am   26  ASP26      -0.1957
     34  CA         1.0360   15.0980   18.8890 C.3    26  ASP26       0.1840
     35  C          1.8530   14.4450   17.7780 C.2    26  ASP26       0.2622
     36  O          1.6310   14.7150   16.5980 O.2    26  ASP26      -0.2715
     37  CB         1.6220   16.4540   19.3040 C.3    26  ASP26       0.1450
     38  CG         0.6150   17.3080   20.0710 C.2    26  ASP26       0.3671
     39  OD1        0.2210   16.9160   21.1950 O.co2  26  ASP26      -0.2456
     40  OD2        0.1920   18.3590   19.5390 O.co2  26  ASP26      -0.2456
     41  N          2.7830   13.5730   18.1390 N.am   27  THR27      -0.1951
     42  CA         3.5840   12.9140   17.1240 C.3    27  THR27       0.1897
     43  C          3.6500   11.4220   17.3920 C.2    27  THR27       0.2313
     44  O          3.1870   10.9530   18.4320 O.2    27  THR27      -0.2863
     45  CB         4.9980   13.5020   17.0600 C.3    27  THR27       0.1794
     46  OG1        5.6820   13.2330   18.2880 O.3    27  THR27      -0.2208
     47  CG2        4.9310   15.0040   16.8440 C.3    27  THR27       0.0378
     48  N          6.1090    9.9300   20.8040 N.3    30  SER30      -0.1202
     49  CA         5.8600   10.8110   21.9400 C.3    30  SER30       0.2020
     50  C          4.7280   10.2330   22.7810 C.2    30  SER30       0.2618
     51  O          3.7830    9.6260   22.2520 O.2    30  SER30      -0.2717
     52  CB         5.5240   12.2310   21.4790 C.3    30  SER30       0.2103
     53  OG         4.3870   12.2460   20.6390 O.3    30  SER30      -0.2182
     54  N          4.8420   10.4230   24.0930 N.am   31  LEU31      -0.1979
     55  CA         3.8800    9.9160   25.0570 C.3    31  LEU31       0.1596
     56  C          2.4960   10.5080   24.9040 C.2    31  LEU31       0.2287
     57  O          2.3550   11.6730   24.5780 O.2    31  LEU31      -0.2864
     58  CB         4.4180   10.1810   26.4420 C.3    31  LEU31       0.0297
     59  CG         5.7200    9.4310   26.6700 C.3    31  LEU31       0.0022
     60  CD1        6.2750    9.8260   28.0150 C.3    31  LEU31       0.0001
     61  CD2        5.4660    7.9160   26.5770 C.3    31  LEU31       0.0001
     62  N         -1.4010   11.3950   26.4800 N.3    33  ARG33      -0.1231
     63  CA        -2.1430   11.6180   27.7150 C.3    33  ARG33       0.1694
     64  C         -3.6010   11.9170   27.4030 C.2    33  ARG33       0.2592
     65  O         -3.9600   12.1610   26.2590 O.2    33  ARG33      -0.2718
     66  CB        -1.5080   12.7610   28.5120 C.3    33  ARG33       0.0321
     67  CG         0.0130   12.6490   28.6150 C.3    33  ARG33       0.0489
     68  CD         0.6060   13.6490   29.5800 C.3    33  ARG33       0.2205
     69  NE         1.9300   14.0730   29.1380 N.pl3  33  ARG33      -0.0865
     70  CZ         3.0710   13.5040   29.5100 C.cat  33  ARG33       0.5346
     71  NH1        3.0670   12.4660   30.3360 N.pl3  33  ARG33       0.1354
     72  NH2        4.2250   14.0070   29.1000 N.pl3  33  ARG33       0.1354
     73  N         -4.4590   11.8810   28.4020 N.am   34  CYS34      -0.1956
     74  CA        -5.8540   12.1390   28.1440 C.3    34  CYS34       0.1843
     75  C         -6.0770   13.5910   27.7840 C.2    34  CYS34       0.2625
     76  O         -5.5480   14.4890   28.4420 O.2    34  CYS34      -0.2714
     77  CB        -6.6870   11.7380   29.3440 C.3    34  CYS34       0.0997
     78  SG        -6.4310   10.0040   29.8050 S.3    34  CYS34      -0.0797
     79  N         -6.8520   13.8240   26.7280 N.am   35  ALA35      -0.1963
     80  CA        -7.1430   15.1820   26.2810 C.3    35  ALA35       0.1728
     81  C         -8.6380   15.3540   26.0570 C.2    35  ALA35       0.2616
     82  O         -9.3570   14.3790   25.8950 O.2    35  ALA35      -0.2715
     83  CB        -6.3740   15.4730   25.0090 C.3    35  ALA35       0.0334
     84  N         -9.1190   16.5900   26.1050 N.am   36  LEU36      -0.1977
     85  CA       -10.5450   16.8480   25.8660 C.3    36  LEU36       0.1596
     86  C        -10.8660   16.6920   24.3820 C.2    36  LEU36       0.2287
     87  O         -9.9970   16.9150   23.5340 O.2    36  LEU36      -0.2864
     88  CB       -10.9320   18.2560   26.3190 C.3    36  LEU36       0.0297
     89  CG       -10.7370   18.5350   27.8090 C.3    36  LEU36       0.0022
     90  CD1      -10.7520   20.0200   28.0490 C.3    36  LEU36       0.0001
     91  CD2      -11.7880   17.8340   28.6290 C.3    36  LEU36       0.0001
@<TRIPOS>BOND
     1    36    35    2
     2    47    45    1
     3    45    42    1
     4    45    46    1
     5    42    43    1
     6    42    41    1
     7    43    44    2
     8    35    41   am
     9    35    34    1
    10    32    31   ar
    11    32    30   ar
    12    34    37    1
    13    34    33    1
    14    26    25    2
    15    31    29   ar
    16    37    38    1
    17    40    38   ar
    18    30    28   ar
    19    25    33   am
    20    25    24    1
    21    22    20   am
    22    38    39   ar
    23    29    28   ar
    24    28    27    1
    25    53    52    1
    26    48    49    1
    27    19    20    1
    28    19    18    1
    29    20    21    2
    30    24    23    1
    31    24    27    1
    32    23    16   am
    33    52    49    1
    34    49    50    1
    35    51    50    2
    36    18    15    1
    37    15    16    1
    38    15    14    1
    39    16    17    2
    40    50    54   am
    41    87    86    2
    42    54    55    1
    43    86    85    1
    44    57    56    2
    45    56    55    1
    46    83    80    1
    47    55    58    1
    48    85    84    1
    49    85    88    1
    50    82    81    2
    51    81    84   am
    52    81    80    1
    53    65    64    2
    54    80    79    1
    55    88    89    1
    56    58    59    1
    57    62    63    1
    58    61    59    1
    59    59    60    1
    60    79    75   am
    61    64    63    1
    62    64    73   am
    63    63    66    1
    64    75    74    1
    65    75    76    2
    66    89    90    1
    67    89    91    1
    68    74    73    1
    69    74    77    1
    70    66    67    1
    71    67    68    1
    72    72    70    1
    73    69    70    2
    74    69    68    1
    75    77    78    1
    76    70    71    1
    77     6     5    1
    78     6     7    1
    79     5     2    1
    80    10    11    1
    81    10     3   am
    82     9     7   ar
    83     7     8   ar
    84    11    12    1
    85     2     3    1
    86     2     1    1
    87     3     4    2
    88    12    13    2
