@<TRIPOS>MOLECULE
tmp/1lpcA00.pdb
 154 150 0 0 0
SMALL
GASTEIGER

@<TRIPOS>ATOM
      1  N         61.2990  -13.2680   -1.9000 N.3    72  LEU72      -0.1231
      2  CA        61.0610  -12.8770   -3.2910 C.3    72  LEU72       0.1693
      3  C         61.6450  -13.8220   -4.3340 C.2    72  LEU72       0.2592
      4  O         61.9710  -13.3980   -5.4440 O.2    72  LEU72      -0.2718
      5  CB        61.5520  -11.4550   -3.5780 C.3    72  LEU72       0.0284
      6  CG        60.7010  -10.2740   -3.1270 C.3    72  LEU72       0.0019
      7  CD1       61.1390   -9.0540   -3.9260 C.3    72  LEU72       0.0001
      8  CD2       59.2200  -10.5560   -3.3480 C.3    72  LEU72       0.0001
      9  N         61.8020  -15.0910   -3.9830 N.am   73  TYR73      -0.1962
     10  CA        62.3310  -16.0460   -4.9350 C.3    73  TYR73       0.1771
     11  C         61.2380  -16.5350   -5.8640 C.2    73  TYR73       0.2619
     12  O         60.1300  -16.8420   -5.4210 O.2    73  TYR73      -0.2715
     13  CB        62.9740  -17.2340   -4.2230 C.3    73  TYR73       0.0574
     14  CG        64.4210  -17.0070   -3.8560 C.ar   73  TYR73      -0.0198
     15  CD1       64.8210  -15.8420   -3.2000 C.ar   73  TYR73      -0.0009
     16  CD2       65.3910  -17.9560   -4.1620 C.ar   73  TYR73      -0.0009
     17  CE1       66.1500  -15.6290   -2.8540 C.ar   73  TYR73       0.0417
     18  CE2       66.7260  -17.7530   -3.8210 C.ar   73  TYR73       0.0417
     19  CZ        67.0960  -16.5880   -3.1660 C.ar   73  TYR73       0.1957
     20  OH        68.4110  -16.3890   -2.8120 O.3    73  TYR73      -0.2866
     21  N         61.5300  -16.5400   -7.1600 N.am   74  VAL74      -0.1977
     22  CA        60.5750  -17.0270   -8.1530 C.3    74  VAL74       0.1596
     23  C         60.5980  -18.5540   -8.0540 C.2    74  VAL74       0.2287
     24  O         61.6550  -19.1740   -8.2030 O.2    74  VAL74      -0.2864
     25  CB        60.9610  -16.5640   -9.5770 C.3    74  VAL74       0.0276
     26  CG1       60.0960  -17.2630  -10.6270 C.3    74  VAL74       0.0022
     27  CG2       60.8080  -15.0510   -9.6840 C.3    74  VAL74       0.0022
     28  N         59.7630  -25.2750   -9.3460 N.3    91  PHE91      -0.1241
     29  CA        61.0400  -25.7590   -8.8400 C.3    91  PHE91       0.1605
     30  C         60.7070  -26.6440   -7.6380 C.2    91  PHE91       0.2264
     31  O         60.0140  -26.2110   -6.7180 O.2    91  PHE91      -0.2867
     32  CB        61.9270  -24.5780   -8.4430 C.3    91  PHE91       0.0534
     33  CG        62.3920  -23.7550   -9.6120 C.ar   91  PHE91      -0.0203
     34  CD1       61.9600  -22.4430   -9.7750 C.ar   91  PHE91      -0.0042
     35  CD2       63.2650  -24.2940  -10.5520 C.ar   91  PHE91      -0.0042
     36  CE1       62.3890  -21.6720  -10.8580 C.ar   91  PHE91      -0.0003
     37  CE2       63.7030  -23.5330  -11.6400 C.ar   91  PHE91      -0.0003
     38  CZ        63.2630  -22.2190  -11.7910 C.ar   91  PHE91      -0.0000
     39  N         66.7420  -23.5850   -9.3290 N.3   119  GLU119     -0.1231
     40  CA        66.1970  -22.2280   -9.3460 C.3   119  GLU119      0.1699
     41  C         67.2620  -21.1310   -9.3050 C.2   119  GLU119      0.2592
     42  O         66.9440  -19.9430   -9.4190 O.2   119  GLU119     -0.2718
     43  CB        65.2060  -22.0320   -8.1900 C.3   119  GLU119      0.0402
     44  CG        65.8140  -22.0590   -6.7830 C.3   119  GLU119      0.1161
     45  CD        66.1380  -23.4570   -6.2690 C.2   119  GLU119      0.3649
     46  OE1       66.6730  -23.5490   -5.1450 O.co2 119  GLU119     -0.2457
     47  OE2       65.8560  -24.4610   -6.9610 O.co2 119  GLU119     -0.2457
     48  N         68.5170  -21.5310   -9.1160 N.am  120  ASP120     -0.1960
     49  CA        69.6320  -20.5900   -9.0660 C.3   120  ASP120      0.1840
     50  C         69.9880  -20.1400  -10.4810 C.2   120  ASP120      0.2622
     51  O         69.7420  -20.8640  -11.4460 O.2   120  ASP120     -0.2715
     52  CB        70.8470  -21.2440   -8.3970 C.3   120  ASP120      0.1450
     53  CG        71.3020  -22.5090   -9.1120 C.2   120  ASP120      0.3671
     54  OD1       70.6530  -23.5650   -8.9330 O.co2 120  ASP120     -0.2456
     55  OD2       72.3040  -22.4440   -9.8560 O.co2 120  ASP120     -0.2456
     56  N         70.5890  -18.9580  -10.5960 N.am  121  TYR121     -0.1974
     57  CA        70.9680  -18.4040  -11.8940 C.3   121  TYR121      0.1639
     58  C         71.8620  -19.3020  -12.7530 C.2   121  TYR121      0.2290
     59  O         71.6260  -19.4430  -13.9520 O.2   121  TYR121     -0.2864
     60  CB        71.6280  -17.0340  -11.7210 C.3   121  TYR121      0.0560
     61  CG        70.6570  -15.8980  -11.4840 C.ar  121  TYR121     -0.0198
     62  CD1       70.8300  -15.0210  -10.4150 C.ar  121  TYR121     -0.0009
     63  CD2       69.5790  -15.6830  -12.3470 C.ar  121  TYR121     -0.0009
     64  CE1       69.9570  -13.9520  -10.2100 C.ar  121  TYR121      0.0417
     65  CE2       68.6960  -14.6170  -12.1510 C.ar  121  TYR121      0.0417
     66  CZ        68.8940  -13.7560  -11.0820 C.ar  121  TYR121      0.1957
     67  OH        68.0410  -12.6980  -10.8880 O.3   121  TYR121     -0.2866
     68  N         62.7090  -12.8710  -13.8020 N.3   172  ILE172     -0.1245
     69  CA        63.2270  -12.7600  -12.4350 C.3   172  ILE172      0.1561
     70  C         63.8860  -11.4000  -12.2100 C.2   172  ILE172      0.2260
     71  O         63.6590  -10.7460  -11.1890 O.2   172  ILE172     -0.2867
     72  CB        64.2600  -13.8790  -12.1120 C.3   172  ILE172      0.0252
     73  CG1       63.5840  -15.2540  -12.1110 C.3   172  ILE172      0.0019
     74  CG2       64.9090  -13.6260  -10.7530 C.3   172  ILE172      0.0019
     75  CD1       64.5550  -16.4150  -12.0010 C.3   172  ILE172      0.0001
     76  N         61.6400   -9.5020   -9.3250 N.3   176  ALA176     -0.1231
     77  CA        62.3350   -9.6740   -8.0510 C.3   176  ALA176      0.1694
     78  C         63.5510   -8.7680   -7.8960 C.2   176  ALA176      0.2591
     79  O         63.6500   -8.0350   -6.9120 O.2   176  ALA176     -0.2718
     80  CB        62.7370  -11.1320   -7.8610 C.3   176  ALA176      0.0304
     81  N         64.4630   -8.7910   -8.8680 N.am  177  GLU177     -0.1979
     82  CA        65.6590   -7.9570   -8.7680 C.3   177  GLU177      0.1602
     83  C         65.3570   -6.4650   -8.8230 C.2   177  GLU177      0.2287
     84  O         65.9440   -5.6810   -8.0690 O.2   177  GLU177     -0.2864
     85  CB        66.7060   -8.3430   -9.8230 C.3   177  GLU177      0.0415
     86  CG        67.1130   -9.8270   -9.8190 C.3   177  GLU177      0.1163
     87  CD        67.8900  -10.2900   -8.5740 C.2   177  GLU177      0.3649
     88  OE1       67.9440   -9.5710   -7.5510 O.co2 177  GLU177     -0.2457
     89  OE2       68.4550  -11.4000   -8.6260 O.co2 177  GLU177     -0.2457
     90  N         64.1330   -5.3230   -5.4660 N.3   180  ARG180     -0.1245
     91  CA        65.2270   -5.2340   -4.4990 C.3   180  ARG180      0.1563
     92  C         66.1750   -4.0630   -4.7470 C.2   180  ARG180      0.2260
     93  O         66.6460   -3.4230   -3.8020 O.2   180  ARG180     -0.2867
     94  CB        66.0640   -6.5110   -4.5360 C.3   180  ARG180      0.0307
     95  CG        65.3800   -7.7830   -4.0850 C.3   180  ARG180      0.0489
     96  CD        66.2780   -8.9720   -4.4230 C.3   180  ARG180      0.2205
     97  NE        65.7360  -10.2490   -3.9680 N.pl3 180  ARG180     -0.0865
     98  CZ        65.6820  -11.3530   -4.7080 C.cat 180  ARG180      0.5346
     99  NH1       66.1330  -11.3490   -5.9570 N.pl3 180  ARG180      0.1354
    100  NH2       65.1960  -12.4740   -4.1900 N.pl3 180  ARG180      0.1354
    101  N         73.0560   -7.8770   -7.8090 N.3   206  GLN206     -0.1231
    102  CA        72.3430   -9.1430   -7.6550 C.3   206  GLN206      0.1698
    103  C         73.0270  -10.1930   -6.7840 C.2   206  GLN206      0.2592
    104  O         72.3960  -10.7830   -5.9040 O.2   206  GLN206     -0.2718
    105  CB        72.0130   -9.7330   -9.0290 C.3   206  GLN206      0.0381
    106  CG        70.9970   -8.9000   -9.8050 C.3   206  GLN206      0.0905
    107  CD        70.7510   -9.4100  -11.2170 C.2   206  GLN206      0.2608
    108  OE1       70.1430   -8.7180  -12.0400 O.2   206  GLN206     -0.2717
    109  NE2       71.2200  -10.6160  -11.5050 N.am  206  GLN206     -0.0878
    110  N         74.3200  -10.4020   -7.0020 N.am  207  VAL207     -0.1980
    111  CA        75.0540  -11.3960   -6.2310 C.3   207  VAL207      0.1595
    112  C         75.3820  -10.9720   -4.7940 C.2   207  VAL207      0.2287
    113  O         75.8190  -11.7940   -3.9860 O.2   207  VAL207     -0.2864
    114  CB        76.3490  -11.8320   -6.9590 C.3   207  VAL207      0.0276
    115  CG1       76.0050  -12.3710   -8.3450 C.3   207  VAL207      0.0022
    116  CG2       77.3440  -10.6730   -7.0530 C.3   207  VAL207      0.0022
    117  N         73.0460   -9.2140   -2.6320 N.3   209  TRP209     -0.1227
    118  CA        71.8420   -8.7840   -1.9140 C.3   209  TRP209      0.1737
    119  C         71.9640   -9.0720   -0.4160 C.2   209  TRP209      0.2596
    120  O         71.7050   -8.1990    0.4090 O.2   209  TRP209     -0.2718
    121  CB        70.5940   -9.4790   -2.4650 C.3   209  TRP209      0.0564
    122  CG        69.3080   -8.9870   -1.8500 C.ar  209  TRP209      0.0003
    123  CD1       68.9290   -7.6850   -1.6590 C.ar  209  TRP209      0.0946
    124  CD2       68.2170   -9.7910   -1.3920 C.ar  209  TRP209      0.0152
    125  NE1       67.6670   -7.6310   -1.1210 N.ar  209  TRP209     -0.2442
    126  CE2       67.2040   -8.9090   -0.9490 C.ar  209  TRP209      0.0810
    127  CE3       67.9910  -11.1730   -1.3190 C.ar  209  TRP209      0.0012
    128  CZ2       65.9820   -9.3670   -0.4430 C.ar  209  TRP209      0.0191
    129  CZ3       66.7740  -11.6260   -0.8140 C.ar  209  TRP209      0.0001
    130  CH2       65.7870  -10.7230   -0.3850 C.ar  209  TRP209      0.0015
    131  N         72.3600  -10.2970   -0.0790 N.am  210  SER210     -0.1938
    132  CA        72.5210  -10.6980    1.3170 C.3   210  SER210      0.2055
    133  C         73.6200   -9.8970    2.0100 C.2   210  SER210      0.2642
    134  O         73.4450   -9.4470    3.1420 O.2   210  SER210     -0.2714
    135  CB        72.8300  -12.1910    1.4090 C.3   210  SER210      0.2130
    136  OG        71.7270  -12.9600    0.9630 O.3   210  SER210     -0.2179
    137  N         74.7360   -9.7010    1.3140 N.am  211  LYS211     -0.1977
    138  CA        75.8730   -8.9530    1.8490 C.3   211  LYS211      0.1596
    139  C         75.4910   -7.5070    2.1450 C.2   211  LYS211      0.2287
    140  O         75.7840   -6.9880    3.2240 O.2   211  LYS211     -0.2864
    141  CB        77.0630   -9.0020    0.8780 C.3   211  LYS211      0.0298
    142  CG        77.7090  -10.3810    0.7240 C.3   211  LYS211      0.0038
    143  CD        76.7570  -11.3890    0.0820 C.3   211  LYS211      0.0206
    144  CE        77.2890  -12.8170    0.1670 C.3   211  LYS211      0.1093
    145  NZ        76.2820  -13.8130   -0.3170 N.3   211  LYS211     -0.1314
    146  N         66.7790   -7.8510    2.6890 N.3   248  LYS248     -0.1245
    147  CA        66.5080   -9.2170    3.1230 C.3   248  LYS248      0.1561
    148  C         66.1980   -9.2430    4.6310 C.2   248  LYS248      0.2260
    149  O         66.7780   -8.4740    5.4000 O.2   248  LYS248     -0.2867
    150  CB        67.7340  -10.0880    2.8270 C.3   248  LYS248      0.0271
    151  CG        67.5500  -11.5620    3.0960 C.3   248  LYS248      0.0035
    152  CD        68.8150  -12.3230    2.7650 C.3   248  LYS248      0.0206
    153  CE        68.6390  -13.8110    2.9950 C.3   248  LYS248      0.1093
    154  NZ        69.8840  -14.5480    2.6540 N.3   248  LYS248     -0.1314
@<TRIPOS>BOND
     1    59    58    2
     2    68    69    1
     3    58    57    1
     4    69    70    1
     5    69    72    1
     6    63    65   ar
     7    63    61   ar
     8    70    71    2
     9    65    66   ar
    10    72    73    1
    11    72    74    1
    12    73    75    1
    13   108   107    2
    14    57    60    1
    15    57    56    1
    16    38    37   ar
    17    38    36   ar
    18    60    61    1
    19    37    35   ar
    20   109   107   am
    21    61    62   ar
    22    51    50    2
    23   107   106    1
    24    66    67    1
    25    66    64   ar
    26    36    34   ar
    27    26    25    1
    28    56    50   am
    29    35    33   ar
    30    50    49    1
    31    62    64   ar
    32    55    53   ar
    33    85    86    1
    34    85    82    1
    35    86    87    1
    36   106   105    1
    37    34    33   ar
    38    27    25    1
    39    33    32    1
    40    25    22    1
    41    42    41    2
    42    40    39    1
    43    40    41    1
    44    40    43    1
    45    28    29    1
    46    76    77    1
    47    41    48   am
    48    48    49    1
    49    53    54   ar
    50    53    52    1
    51    49    52    1
    52   105   102    1
    53    81    82    1
    54    81    78   am
    55    29    32    1
    56    29    30    1
    57    83    82    1
    58    83    84    2
    59    89    87   ar
    60    87    88   ar
    61   115   114    1
    62    24    23    2
    63    43    44    1
    64    22    23    1
    65    22    21    1
    66    77    78    1
    67    77    80    1
    68    78    79    2
    69   101   102    1
    70   102   103    1
    71    30    31    2
    72    21    11   am
    73   116   114    1
    74   110   103   am
    75   110   111    1
    76    47    45   ar
    77   114   111    1
    78   103   104    2
    79    44    45    1
    80    45    46   ar
    81   111   112    1
    82    99    98    1
    83    11    12    2
    84    11    10    1
    85    90    91    1
    86     4     3    2
    87    10    13    1
    88    10     9    1
    89   112   113    2
    90    92    91    1
    91    92    93    2
    92    98   100    1
    93    98    97    2
    94    94    91    1
    95    94    95    1
    96    96    95    1
    97    96    97    1
    98     3     9   am
    99     3     2    1
   100    13    14    1
   101    16    14   ar
   102    16    18   ar
   103     7     6    1
   104    14    15   ar
   105    18    19   ar
   106     5     2    1
   107     5     6    1
   108     8     6    1
   109     2     1    1
   110    15    17   ar
   111    19    17   ar
   112    19    20    1
   113   117   118    1
   114   121   118    1
   115   121   122    1
   116   118   119    1
   117   122   123   ar
   118   122   124   ar
   119   123   125   ar
   120   124   127   ar
   121   124   126   ar
   122   127   129   ar
   123   125   126   ar
   124   126   128   ar
   125   129   130   ar
   126   128   130   ar
   127   119   131   am
   128   119   120    2
   129   145   144    1
   130   131   132    1
   131   143   144    1
   132   143   142    1
   133   142   141    1
   134   141   138    1
   135   136   135    1
   136   137   138    1
   137   137   133   am
   138   132   135    1
   139   132   133    1
   140   138   139    1
   141   133   134    2
   142   139   140    2
   143   154   153    1
   144   146   147    1
   145   152   153    1
   146   152   151    1
   147   150   151    1
   148   150   147    1
   149   147   148    1
   150   148   149    2
