@<TRIPOS>MOLECULE
tmp/1lpdA00.pdb
 109 105 0 0 0
SMALL
GASTEIGER

@<TRIPOS>ATOM
      1  N         61.3420  -13.3520   -1.9760 N.3    72  LEU72      -0.1231
      2  CA        61.1420  -12.9800   -3.3760 C.3    72  LEU72       0.1693
      3  C         61.7420  -13.9570   -4.3910 C.2    72  LEU72       0.2592
      4  O         62.0480  -13.5760   -5.5230 O.2    72  LEU72      -0.2718
      5  CB        61.6410  -11.5600   -3.6620 C.3    72  LEU72       0.0284
      6  CG        60.8380  -10.3760   -3.1260 C.3    72  LEU72       0.0019
      7  CD1       61.2420   -9.1440   -3.9160 C.3    72  LEU72       0.0001
      8  CD2       59.3410  -10.6190   -3.2670 C.3    72  LEU72       0.0001
      9  N         61.9350  -15.2060   -3.9800 N.am   73  TYR73      -0.1962
     10  CA        62.4700  -16.2190   -4.8800 C.3    73  TYR73       0.1771
     11  C         61.3640  -16.7200   -5.7950 C.2    73  TYR73       0.2619
     12  O         60.2430  -16.9570   -5.3500 O.2    73  TYR73      -0.2715
     13  CB        63.0580  -17.3990   -4.1010 C.3    73  TYR73       0.0574
     14  CG        64.5370  -17.2680   -3.8280 C.ar   73  TYR73      -0.0198
     15  CD1       65.0430  -16.1680   -3.1340 C.ar   73  TYR73      -0.0009
     16  CD2       65.4340  -18.2360   -4.2780 C.ar   73  TYR73      -0.0009
     17  CE1       66.4070  -16.0330   -2.8920 C.ar   73  TYR73       0.0417
     18  CE2       66.8020  -18.1110   -4.0430 C.ar   73  TYR73       0.0417
     19  CZ        67.2810  -17.0070   -3.3490 C.ar   73  TYR73       0.1957
     20  OH        68.6300  -16.8750   -3.1120 O.3    73  TYR73      -0.2866
     21  N         61.6660  -16.8320   -7.0830 N.am   74  VAL74      -0.1977
     22  CA        60.6830  -17.3220   -8.0400 C.3    74  VAL74       0.1596
     23  C         60.5880  -18.8320   -7.8680 C.2    74  VAL74       0.2287
     24  O         61.6020  -19.5330   -7.8840 O.2    74  VAL74      -0.2864
     25  CB        61.0600  -16.9490   -9.4900 C.3    74  VAL74       0.0276
     26  CG1       60.1180  -17.6250  -10.4780 C.3    74  VAL74       0.0022
     27  CG2       60.9950  -15.4340   -9.6600 C.3    74  VAL74       0.0022
     28  N         59.7160  -25.3220   -9.3580 N.3    91  PHE91      -0.1241
     29  CA        60.9920  -25.8070   -8.8550 C.3    91  PHE91       0.1605
     30  C         60.6730  -26.7060   -7.6600 C.2    91  PHE91       0.2264
     31  O         60.0220  -26.2750   -6.7060 O.2    91  PHE91      -0.2867
     32  CB        61.8860  -24.6300   -8.4580 C.3    91  PHE91       0.0534
     33  CG        62.3820  -23.8270   -9.6300 C.ar   91  PHE91      -0.0203
     34  CD1       61.9540  -22.5180   -9.8280 C.ar   91  PHE91      -0.0042
     35  CD2       63.2810  -24.3830  -10.5390 C.ar   91  PHE91      -0.0042
     36  CE1       62.4140  -21.7700  -10.9160 C.ar   91  PHE91      -0.0003
     37  CE2       63.7460  -23.6460  -11.6280 C.ar   91  PHE91      -0.0003
     38  CZ        63.3110  -22.3360  -11.8160 C.ar   91  PHE91      -0.0000
     39  N         66.7070  -23.6710   -9.4280 N.3   119  GLU119     -0.1231
     40  CA        66.1970  -22.2980   -9.4330 C.3   119  GLU119      0.1699
     41  C         67.2730  -21.2100   -9.4050 C.2   119  GLU119      0.2592
     42  O         66.9590  -20.0190   -9.4940 O.2   119  GLU119     -0.2718
     43  CB        65.2220  -22.0890   -8.2660 C.3   119  GLU119      0.0402
     44  CG        65.8440  -22.1570   -6.8680 C.3   119  GLU119      0.1161
     45  CD        66.4100  -23.5250   -6.5250 C.2   119  GLU119      0.3649
     46  OE1       65.7110  -24.5380   -6.7440 O.co2 119  GLU119     -0.2457
     47  OE2       67.5590  -23.5850   -6.0370 O.co2 119  GLU119     -0.2457
     48  N         68.5310  -21.6120   -9.2500 N.am  120  ASP120     -0.1960
     49  CA        69.6380  -20.6590   -9.2180 C.3   120  ASP120      0.1840
     50  C         69.9820  -20.2110  -10.6370 C.2   120  ASP120      0.2622
     51  O         69.7810  -20.9610  -11.5930 O.2   120  ASP120     -0.2715
     52  CB        70.8630  -21.2850   -8.5440 C.3   120  ASP120      0.1450
     53  CG        71.3400  -22.5440   -9.2460 C.2   120  ASP120      0.3671
     54  OD1       70.6940  -23.6020   -9.0810 O.co2 120  ASP120     -0.2456
     55  OD2       72.3600  -22.4720   -9.9630 O.co2 120  ASP120     -0.2456
     56  N         70.5070  -18.9930  -10.7650 N.am  121  TYR121     -0.1974
     57  CA        70.8740  -18.4330  -12.0660 C.3   121  TYR121      0.1639
     58  C         71.7790  -19.3370  -12.9010 C.2   121  TYR121      0.2290
     59  O         71.5560  -19.5110  -14.0930 O.2   121  TYR121     -0.2864
     60  CB        71.5450  -17.0680  -11.8960 C.3   121  TYR121      0.0560
     61  CG        70.5910  -15.9280  -11.6200 C.ar  121  TYR121     -0.0198
     62  CD1       70.8280  -15.0350  -10.5770 C.ar  121  TYR121     -0.0009
     63  CD2       69.4700  -15.7190  -12.4240 C.ar  121  TYR121     -0.0009
     64  CE1       69.9770  -13.9550  -10.3440 C.ar  121  TYR121      0.0417
     65  CE2       68.6100  -14.6410  -12.1990 C.ar  121  TYR121      0.0417
     66  CZ        68.8750  -13.7660  -11.1610 C.ar  121  TYR121      0.1957
     67  OH        68.0530  -12.6930  -10.9480 O.3   121  TYR121     -0.2866
     68  N         62.6490  -12.8660  -13.8090 N.3   172  ILE172     -0.1245
     69  CA        63.1760  -12.7640  -12.4430 C.3   172  ILE172      0.1561
     70  C         63.8520  -11.4150  -12.2040 C.2   172  ILE172      0.2260
     71  O         63.6250  -10.7640  -11.1830 O.2   172  ILE172     -0.2867
     72  CB        64.1980  -13.8920  -12.1300 C.3   172  ILE172      0.0252
     73  CG1       63.5080  -15.2570  -12.1570 C.3   172  ILE172      0.0019
     74  CG2       64.8480  -13.6590  -10.7650 C.3   172  ILE172      0.0019
     75  CD1       64.4590  -16.4370  -12.0310 C.3   172  ILE172      0.0001
     76  N         61.6340   -9.5220   -9.2790 N.3   176  ALA176     -0.1231
     77  CA        62.3300   -9.7120   -8.0070 C.3   176  ALA176      0.1694
     78  C         63.5650   -8.8260   -7.8440 C.2   176  ALA176      0.2591
     79  O         63.6940   -8.1250   -6.8370 O.2   176  ALA176     -0.2718
     80  CB        62.7050  -11.1760   -7.8250 C.3   176  ALA176      0.0304
     81  N         64.4610   -8.8400   -8.8330 N.am  177  GLU177     -0.1979
     82  CA        65.6750   -8.0300   -8.7450 C.3   177  GLU177      0.1602
     83  C         65.3870   -6.5360   -8.8030 C.2   177  GLU177      0.2287
     84  O         65.9970   -5.7580   -8.0650 O.2   177  GLU177     -0.2864
     85  CB        66.6990   -8.4340   -9.8160 C.3   177  GLU177      0.0415
     86  CG        67.0820   -9.9210   -9.8080 C.3   177  GLU177      0.1163
     87  CD        67.8460  -10.3860   -8.5590 C.2   177  GLU177      0.3649
     88  OE1       67.9800   -9.6250   -7.5750 O.co2 177  GLU177     -0.2457
     89  OE2       68.3260  -11.5370   -8.5680 O.co2 177  GLU177     -0.2457
     90  N         64.1640   -5.3960   -5.4500 N.3   180  ARG180     -0.1245
     91  CA        65.2640   -5.3050   -4.4870 C.3   180  ARG180      0.1563
     92  C         66.2070   -4.1240   -4.7250 C.2   180  ARG180      0.2260
     93  O         66.6620   -3.4770   -3.7760 O.2   180  ARG180     -0.2867
     94  CB        66.1120   -6.5790   -4.5360 C.3   180  ARG180      0.0307
     95  CG        65.4210   -7.8640   -4.1310 C.3   180  ARG180      0.0489
     96  CD        66.3340   -9.0450   -4.4400 C.3   180  ARG180      0.2205
     97  NE        65.7910  -10.3220   -3.9840 N.pl3 180  ARG180     -0.0865
     98  CZ        65.7270  -11.4230   -4.7270 C.cat 180  ARG180      0.5346
     99  NH1       66.1730  -11.4140   -5.9780 N.pl3 180  ARG180      0.1354
    100  NH2       65.2160  -12.5360   -4.2180 N.pl3 180  ARG180      0.1354
    101  N         72.9910   -7.9190   -7.7470 N.3   206  GLN206     -0.1245
    102  CA        72.2810   -9.1800   -7.5940 C.3   206  GLN206      0.1566
    103  C         72.9800  -10.2180   -6.7310 C.2   206  GLN206      0.2260
    104  O         72.3570  -10.8120   -5.8550 O.2   206  GLN206     -0.2867
    105  CB        71.9620   -9.7770   -8.9650 C.3   206  GLN206      0.0367
    106  CG        70.9760   -8.9340   -9.7720 C.3   206  GLN206      0.0905
    107  CD        70.7640   -9.4540  -11.1780 C.2   206  GLN206      0.2608
    108  OE1       70.1360   -8.7910  -12.0060 O.2   206  GLN206     -0.2717
    109  NE2       71.2860  -10.6410  -11.4570 N.am  206  GLN206     -0.0878
@<TRIPOS>BOND
     1    59    58    2
     2    68    69    1
     3    58    57    1
     4    69    70    1
     5    69    72    1
     6    63    65   ar
     7    63    61   ar
     8    70    71    2
     9    65    66   ar
    10    73    72    1
    11    73    75    1
    12    72    74    1
    13    57    60    1
    14    57    56    1
    15   108   107    2
    16    60    61    1
    17    38    37   ar
    18    38    36   ar
    19    37    35   ar
    20    61    62   ar
    21    51    50    2
    22   109   107   am
    23   107   106    1
    24    66    67    1
    25    66    64   ar
    26    36    34   ar
    27    56    50   am
    28    50    49    1
    29    62    64   ar
    30    35    33   ar
    31    26    25    1
    32    55    53   ar
    33    34    33   ar
    34    85    86    1
    35    85    82    1
    36    86    87    1
    37   106   105    1
    38    27    25    1
    39    33    32    1
    40    42    41    2
    41    25    22    1
    42    40    39    1
    43    40    41    1
    44    40    43    1
    45    41    48   am
    46    28    29    1
    47    76    77    1
    48    48    49    1
    49    53    54   ar
    50    53    52    1
    51    49    52    1
    52   105   102    1
    53    29    32    1
    54    29    30    1
    55    81    82    1
    56    81    78   am
    57    83    82    1
    58    83    84    2
    59    89    87   ar
    60    87    88   ar
    61    43    44    1
    62    22    23    1
    63    22    21    1
    64    77    78    1
    65    77    80    1
    66    24    23    2
    67    78    79    2
    68   101   102    1
    69    30    31    2
    70   102   103    1
    71    21    11   am
    72    44    45    1
    73    46    45   ar
    74   103   104    2
    75    45    47   ar
    76    99    98    1
    77    11    12    2
    78    11    10    1
    79     4     3    2
    80    90    91    1
    81    10    13    1
    82    10     9    1
    83    98   100    1
    84    98    97    2
    85    92    91    1
    86    92    93    2
    87    94    91    1
    88    94    95    1
    89    96    95    1
    90    96    97    1
    91     3     9   am
    92     3     2    1
    93    16    18   ar
    94    16    14   ar
    95    13    14    1
    96    18    19   ar
    97     7     6    1
    98    14    15   ar
    99     5     2    1
   100     5     6    1
   101     2     1    1
   102    19    20    1
   103    19    17   ar
   104     8     6    1
   105    15    17   ar
