@<TRIPOS>MOLECULE
tmp/1lpgB00.pdb
 219 218 0 0 0
SMALL
GASTEIGER

@<TRIPOS>ATOM
      1  N         14.0790   10.7570   13.9290 N.3    42  HIS42      -0.1241
      2  CA        12.6230   10.7330   13.8840 C.3    42  HIS42       0.1621
      3  C         12.0060   12.0980   14.1820 C.2    42  HIS42       0.2264
      4  O         10.8590   12.3560   13.8420 O.2    42  HIS42      -0.2867
      5  CB        12.0440    9.6150   14.7740 C.3    42  HIS42       0.0745
      6  CG        11.8320   10.0050   16.2110 C.ar   42  HIS42       0.0817
      7  ND1       12.6680    9.5930   17.2300 N.ar   42  HIS42      -0.2268
      8  CD2       10.8600   10.7420   16.8050 C.ar   42  HIS42       0.1154
      9  CE1       12.2220   10.0560   18.3840 C.ar   42  HIS42       0.1986
     10  NE2       11.1250   10.7570   18.1540 N.ar   42  HIS42      -0.2212
     11  N         11.6870    4.2680   10.2120 N.3    82  LYS82      -0.1231
     12  CA        10.5370    4.6430   11.0200 C.3    82  LYS82       0.1693
     13  C          9.8260    3.4180   11.5830 C.2    82  LYS82       0.2592
     14  O          9.1280    3.4950   12.5830 O.2    82  LYS82      -0.2718
     15  CB         9.5650    5.4830   10.1870 C.3    82  LYS82       0.0285
     16  CG         8.6270    6.3780   11.0020 C.3    82  LYS82       0.0035
     17  CD         9.3680    7.5470   11.6620 C.3    82  LYS82       0.0206
     18  CE         8.4150    8.6750   12.0290 C.3    82  LYS82       0.1093
     19  NZ         9.1070    9.7660   12.7590 N.3    82  LYS82      -0.1314
     20  N         10.0610    2.2730   10.9570 N.am   83  GLU83      -0.1966
     21  CA         9.4320    1.0310   11.3820 C.3    83  GLU83       0.1733
     22  C          9.9070    0.4810   12.7300 C.2    83  GLU83       0.2617
     23  O          9.1310   -0.1150   13.4690 O.2    83  GLU83      -0.2715
     24  CB         9.6170   -0.0330   10.3020 C.3    83  GLU83       0.0429
     25  CG         9.2230    0.4140    8.9040 C.3    83  GLU83       0.1163
     26  CD         7.8120   -0.0090    8.5300 C.2    83  GLU83       0.3649
     27  OE1        7.2040   -0.8220    9.2680 O.co2  83  GLU83      -0.2457
     28  OE2        7.3150    0.4690    7.4890 O.co2  83  GLU83      -0.2457
     29  N         11.1790    0.6910   13.0490 N.am   84  THR84      -0.1937
     30  CA        11.7480    0.1670   14.2840 C.3    84  THR84       0.2028
     31  C         12.5110    1.2130   15.0790 C.2    84  THR84       0.2642
     32  O         12.8720    0.9950   16.2460 O.2    84  THR84      -0.2714
     33  CB        12.7430   -0.9420   13.9480 C.3    84  THR84       0.1808
     34  OG1       13.5960   -0.5000   12.8790 O.3    84  THR84      -0.2208
     35  CG2       12.0080   -2.2040   13.5070 C.3    84  THR84       0.0379
     36  N         12.7590    2.3410   14.4260 N.am   85  TYR85      -0.1973
     37  CA        13.5150    3.4430   15.0000 C.3    85  TYR85       0.1639
     38  C         14.9890    3.1110   15.0930 C.2    85  TYR85       0.2290
     39  O         15.7100    3.6810   15.8930 O.2    85  TYR85      -0.2864
     40  CB        12.9400    3.9390   16.3260 C.3    85  TYR85       0.0560
     41  CG        11.7820    4.8850   16.1220 C.ar   85  TYR85      -0.0198
     42  CD1       10.9570    4.7600   15.0030 C.ar   85  TYR85      -0.0009
     43  CD2       11.5020    5.8960   17.0360 C.ar   85  TYR85      -0.0009
     44  CE1        9.8860    5.6070   14.7960 C.ar   85  TYR85       0.0417
     45  CE2       10.4270    6.7530   16.8400 C.ar   85  TYR85       0.0417
     46  CZ         9.6240    6.6000   15.7130 C.ar   85  TYR85       0.1957
     47  OH         8.5550    7.4390   15.4940 O.3    85  TYR85      -0.2866
     48  N          6.8990   15.8570   28.4380 N.3   132  ARG132     -0.1245
     49  CA         5.7900   15.6190   29.3540 C.3   132  ARG132      0.1563
     50  C          6.2200   15.1450   30.7430 C.2   132  ARG132      0.2260
     51  O          7.1780   14.3710   30.8790 O.2   132  ARG132     -0.2867
     52  CB         4.7840   14.6420   28.7230 C.3   132  ARG132      0.0307
     53  CG         4.2880   15.0740   27.3440 C.3   132  ARG132      0.0489
     54  CD         3.2110   14.1480   26.7660 C.3   132  ARG132      0.2205
     55  NE         2.8950   14.4990   25.3770 N.pl3 132  ARG132     -0.0865
     56  CZ         1.9580   15.3760   25.0070 C.cat 132  ARG132      0.5346
     57  NH1        1.7580   15.6360   23.7210 N.pl3 132  ARG132      0.1354
     58  NH2        1.1970   15.9760   25.9120 N.pl3 132  ARG132      0.1354
     59  N          2.7430   10.5160   31.4010 N.3   135  GLU135     -0.1231
     60  CA         2.3410    9.9470   30.1130 C.3   135  GLU135      0.1699
     61  C          1.2120   10.7160   29.4350 C.2   135  GLU135      0.2592
     62  O          1.2340   10.9240   28.2290 O.2   135  GLU135     -0.2718
     63  CB         1.9520    8.4770   30.2680 C.3   135  GLU135      0.0402
     64  CG         2.0860    7.6560   28.9990 C.3   135  GLU135      0.1161
     65  CD         1.6910    6.2040   29.2070 C.2   135  GLU135      0.3649
     66  OE1        2.4630    5.4630   29.8540 O.co2 135  GLU135     -0.2457
     67  OE2        0.6010    5.8100   28.7310 O.co2 135  GLU135     -0.2457
     68  N          0.1970   11.0790   30.2120 N.am  136  LYS136     -0.1966
     69  CA        -0.9460   11.8280   29.6830 C.3   136  LYS136      0.1728
     70  C         -0.8770   13.3160   30.0660 C.2   136  LYS136      0.2616
     71  O         -1.7720   14.0980   29.7340 O.2   136  LYS136     -0.2715
     72  CB        -2.2720   11.1990   30.1450 C.3   136  LYS136      0.0311
     73  CG        -2.1200    9.8400   30.8450 C.3   136  LYS136      0.0038
     74  CD        -3.4250    9.0490   30.9210 C.3   136  LYS136      0.0206
     75  CE        -3.8720    8.5590   29.5450 C.3   136  LYS136      0.1093
     76  NZ        -2.7770    7.9260   28.7480 N.3   136  LYS136     -0.1314
     77  N          0.2020   13.7030   30.7420 N.am  137  GLY137     -0.1955
     78  CA         0.3600   15.0810   31.1580 C.3   137  GLY137      0.1869
     79  C          0.8340   15.9390   30.0050 C.2   137  GLY137      0.2309
     80  O          1.0450   15.4470   28.9070 O.2   137  GLY137     -0.2863
     81  N          8.8360   -4.4870   21.2870 N.3   162  PHE162     -0.1227
     82  CA         9.4040   -4.1720   19.9780 C.3   162  PHE162      0.1736
     83  C         10.8880   -4.4950   19.9750 C.2   162  PHE162      0.2595
     84  O         11.5230   -4.5210   21.0320 O.2   162  PHE162     -0.2718
     85  CB         9.1690   -2.7010   19.6430 C.3   162  PHE162      0.0547
     86  CG         7.7370   -2.2880   19.7650 C.ar  162  PHE162     -0.0202
     87  CD1        6.8780   -2.3940   18.6820 C.ar  162  PHE162     -0.0042
     88  CD2        7.2330   -1.8330   20.9780 C.ar  162  PHE162     -0.0042
     89  CE1        5.5330   -2.0560   18.8080 C.ar  162  PHE162     -0.0003
     90  CE2        5.8910   -1.4940   21.1140 C.ar  162  PHE162     -0.0003
     91  CZ         5.0390   -1.6060   20.0300 C.ar  162  PHE162     -0.0000
     92  N         11.4440   -4.7220   18.7940 N.am  163  ILE163     -0.1980
     93  CA        12.8540   -5.0620   18.6800 C.3   163  ILE163      0.1595
     94  C         13.8200   -3.9920   19.2020 C.2   163  ILE163      0.2287
     95  O         13.6560   -2.8030   18.9490 O.2   163  ILE163     -0.2864
     96  CB        13.2320   -5.4480   17.2400 C.3   163  ILE163      0.0276
     97  CG1       14.6280   -6.0750   17.1890 C.3   163  ILE163      0.0022
     98  CG2       13.1730   -4.2380   16.3260 C.3   163  ILE163      0.0022
     99  CD1       15.0310   -6.5510   15.8080 C.3   163  ILE163      0.0001
    100  N         11.0340    8.4700   34.2250 N.3   179  ASP179     -0.1225
    101  CA        11.3910    8.1090   32.8650 C.3   179  ASP179      0.1805
    102  C         11.2460    9.3280   31.9570 C.2   179  ASP179      0.2598
    103  O         10.5680   10.2900   32.3040 O.2   179  ASP179     -0.2718
    104  CB        10.4090    7.0320   32.4030 C.3   179  ASP179      0.1424
    105  CG        10.7240    6.4860   31.0370 C.2   179  ASP179      0.3668
    106  OD1       11.8560    6.6760   30.5510 O.co2 179  ASP179     -0.2456
    107  OD2        9.8220    5.8440   30.4590 O.co2 179  ASP179     -0.2456
    108  N         11.9920    9.3480   30.8600 N.am  180  ALA180     -0.1966
    109  CA        11.8650   10.4320   29.9020 C.3   180  ALA180      0.1728
    110  C         10.4670   10.2200   29.3180 C.2   180  ALA180      0.2616
    111  O          9.8300    9.2240   29.6190 O.2   180  ALA180     -0.2715
    112  CB        12.9300   10.2980   28.8190 C.3   180  ALA180      0.0334
    113  N          9.9880   11.1430   28.4940 N.am  181  CYS181     -0.1954
    114  CA         8.6620   11.0120   27.8950 C.3   181  CYS181      0.1843
    115  C          8.6120   11.7590   26.5640 C.2   181  CYS181      0.2625
    116  O          9.6500   12.1720   26.0420 O.2   181  CYS181     -0.2714
    117  CB         7.5770   11.5110   28.8590 C.3   181  CYS181      0.0997
    118  SG         5.8840   10.9460   28.4730 S.3   181  CYS181     -0.0797
    119  N          7.4270   11.8750   25.9720 N.am  182  GLN182     -0.1977
    120  CA         7.3100   12.5800   24.6980 C.3   182  GLN182      0.1601
    121  C          7.6820   14.0450   24.8790 C.2   182  GLN182      0.2287
    122  O          7.3310   14.6560   25.8780 O.2   182  GLN182     -0.2864
    123  CB         5.9140   12.4480   24.1060 C.3   182  GLN182      0.0394
    124  CG         5.9010   12.6490   22.6000 C.3   182  GLN182      0.0908
    125  CD         4.5130   12.9280   22.0660 C.2   182  GLN182      0.2608
    126  OE1        3.6360   13.3830   22.7950 O.2   182  GLN182     -0.2717
    127  NE2        4.3030   12.6420   20.7850 N.am  182  GLN182     -0.0878
    128  N         12.2100   13.5460   23.3580 N.3   185  SER185     -0.1217
    129  CA        12.8340   12.8630   22.2200 C.3   185  SER185      0.1889
    130  C         13.8980   13.6870   21.4980 C.2   185  SER185      0.2288
    131  O         13.7240   14.8710   21.3010 O.2   185  SER185     -0.2866
    132  CB        11.7660   12.3530   21.2570 C.3   185  SER185      0.2089
    133  OG        10.7290   11.6870   21.9720 O.3   185  SER185     -0.2183
    134  N         17.5180   10.5230   23.5090 N.3   203  VAL203     -0.1231
    135  CA        16.2010   10.0140   23.8740 C.3   203  VAL203      0.1692
    136  C         15.5240    9.5410   22.5730 C.2   203  VAL203      0.2593
    137  O         15.4190   10.3110   21.6040 O.2   203  VAL203     -0.2718
    138  CB        15.3490   11.0900   24.5850 C.3   203  VAL203      0.0266
    139  CG1       13.9720   10.5440   24.9570 C.3   203  VAL203      0.0020
    140  CG2       16.0730   11.6380   25.8140 C.3   203  VAL203      0.0020
    141  N         15.1360    8.2660   22.5170 N.am  204  SER204     -0.1938
    142  CA        14.5180    7.7320   21.3060 C.3   204  SER204      0.2055
    143  C         13.0320    7.4200   21.3890 C.2   204  SER204      0.2643
    144  O         12.2390    7.9660   20.6320 O.2   204  SER204     -0.2714
    145  CB        15.2960    6.5270   20.7690 C.3   204  SER204      0.2130
    146  OG        14.8900    6.2050   19.4390 O.3   204  SER204     -0.2179
    147  N         12.6780    6.4610   22.2310 N.am  205  TRP205     -0.1959
    148  CA        11.2870    6.0660   22.3920 C.3   205  TRP205      0.1771
    149  C         11.1390    5.2160   23.6510 C.2   205  TRP205      0.2620
    150  O         12.0460    5.1380   24.4760 O.2   205  TRP205     -0.2715
    151  CB        10.7890    5.3100   21.1450 C.3   205  TRP205      0.0590
    152  CG        11.5440    4.0340   20.8420 C.ar  205  TRP205      0.0006
    153  CD1       12.7250    3.9180   20.1590 C.ar  205  TRP205      0.0946
    154  CD2       11.1640    2.6940   21.2070 C.ar  205  TRP205      0.0152
    155  NE1       13.1010    2.5960   20.0770 N.ar  205  TRP205     -0.2442
    156  CE2       12.1590    1.8250   20.7100 C.ar  205  TRP205      0.0810
    157  CE3       10.0740    2.1500   21.9080 C.ar  205  TRP205      0.0012
    158  CZ2       12.0980    0.4330   20.8850 C.ar  205  TRP205      0.0191
    159  CZ3       10.0160    0.7690   22.0850 C.ar  205  TRP205      0.0001
    160  CH2       11.0230   -0.0720   21.5730 C.ar  205  TRP205      0.0015
    161  N          9.9770    4.6090   23.8080 N.am  206  GLY206     -0.1940
    162  CA         9.7210    3.7740   24.9610 C.3   206  GLY206      0.2014
    163  C          8.2670    3.3960   24.8430 C.2   206  GLY206      0.2639
    164  O          7.6090    3.8010   23.8820 O.2   206  GLY206     -0.2714
    165  N          7.7840    2.5500   25.7420 N.am  207  GLU207     -0.1963
    166  CA         6.3820    2.1570   25.7190 C.3   207  GLU207      0.1733
    167  C          5.6870    2.9300   26.8260 C.2   207  GLU207      0.2617
    168  O          5.8450    2.6300   28.0070 O.2   207  GLU207     -0.2715
    169  CB         6.2370    0.6470   25.8770 C.3   207  GLU207      0.0429
    170  CG         6.8000   -0.0910   24.6840 C.3   207  GLU207      0.1163
    171  CD         6.6410   -1.5730   24.8140 C.2   207  GLU207      0.3649
    172  OE1        5.4850   -2.0320   24.8800 O.co2 207  GLU207     -0.2457
    173  OE2        7.6730   -2.2700   24.8640 O.co2 207  GLU207     -0.2457
    174  N          5.0160    4.0070   26.4290 N.am  208  GLY208     -0.1940
    175  CA         4.3490    4.8760   27.3810 C.3   208  GLY208      0.2014
    176  C          5.4270    5.7080   28.0590 C.2   208  GLY208      0.2639
    177  O          6.4600    6.0310   27.4570 O.2   208  GLY208     -0.2714
    178  N          5.2410    5.9790   29.3370 N.am  209  CYS209     -0.1967
    179  CA         6.2110    6.7530   30.0830 C.3   209  CYS209      0.1712
    180  C          6.1400    6.2970   31.5310 C.2   209  CYS209      0.2296
    181  O          5.0750    6.3090   32.1370 O.2   209  CYS209     -0.2864
    182  CB         5.9260    8.2630   29.9600 C.3   209  CYS209      0.0983
    183  SG         6.0560    8.9300   28.2620 S.3   209  CYS209     -0.0798
    184  N         11.1670    0.2380   30.0200 N.3   215  TYR215     -0.1227
    185  CA        12.2770    1.1830   30.2000 C.3   215  TYR215      0.1736
    186  C         12.3200    2.2750   29.1320 C.2   215  TYR215      0.2596
    187  O         11.5090    2.3010   28.2150 O.2   215  TYR215     -0.2718
    188  CB        13.6230    0.4480   30.2130 C.3   215  TYR215      0.0548
    189  CG        13.6880   -0.6680   31.2230 C.ar  215  TYR215     -0.0200
    190  CD1       13.8370   -0.3900   32.5870 C.ar  215  TYR215     -0.0009
    191  CD2       13.5510   -2.0030   30.8300 C.ar  215  TYR215     -0.0009
    192  CE1       13.8440   -1.4140   33.5380 C.ar  215  TYR215      0.0417
    193  CE2       13.5540   -3.0290   31.7700 C.ar  215  TYR215      0.0417
    194  CZ        13.7020   -2.7290   33.1240 C.ar  215  TYR215      0.1957
    195  OH        13.7210   -3.7360   34.0690 O.3   215  TYR215     -0.2866
    196  N         13.2490    3.2090   29.2870 N.am  216  GLY216     -0.1942
    197  CA        13.3820    4.2540   28.2980 C.3   216  GLY216      0.2014
    198  C         14.3760    3.7510   27.2710 C.2   216  GLY216      0.2639
    199  O         15.4020    3.1910   27.6410 O.2   216  GLY216     -0.2714
    200  N         14.0480    3.8840   25.9920 N.am  217  ILE217     -0.1963
    201  CA        14.9350    3.4330   24.9350 C.3   217  ILE217      0.1727
    202  C         15.7190    4.6070   24.3370 C.2   217  ILE217      0.2616
    203  O         15.1340    5.5980   23.8810 O.2   217  ILE217     -0.2715
    204  CB        14.1790    2.6660   23.8290 C.3   217  ILE217      0.0290
    205  CG1       13.1090    1.7310   24.4290 C.3   217  ILE217      0.0022
    206  CG2       15.1610    1.9090   22.9550 C.3   217  ILE217      0.0023
    207  CD1       13.6650    0.6140   25.3030 C.3   217  ILE217      0.0001
    208  N         17.0360    4.4540   24.2850 N.am  218  TYR218     -0.1974
    209  CA        17.9280    5.4820   23.7730 C.3   218  TYR218      0.1639
    210  C         18.7720    4.9750   22.6320 C.2   218  TYR218      0.2290
    211  O         19.1450    3.7970   22.5960 O.2   218  TYR218     -0.2864
    212  CB        18.8830    5.9350   24.8730 C.3   218  TYR218      0.0560
    213  CG        18.1800    6.5060   26.0700 C.ar  218  TYR218     -0.0198
    214  CD1       17.5820    5.6620   27.0120 C.ar  218  TYR218     -0.0009
    215  CD2       18.0460    7.8870   26.2350 C.ar  218  TYR218     -0.0009
    216  CE1       16.8540    6.1750   28.0880 C.ar  218  TYR218      0.0417
    217  CE2       17.3230    8.4090   27.3030 C.ar  218  TYR218      0.0417
    218  CZ        16.7270    7.5450   28.2250 C.ar  218  TYR218      0.1957
    219  OH        15.9970    8.0280   29.2800 O.3   218  TYR218     -0.2866
@<TRIPOS>BOND
     1    28    26   ar
     2    26    25    1
     3    26    27   ar
     4    25    24    1
     5    15    16    1
     6    15    12    1
     7    11    12    1
     8    24    21    1
     9    20    21    1
    10    20    13   am
    11    16    17    1
    12    12    13    1
    13    21    22    1
    14    13    14    2
    15    17    18    1
    16    18    19    1
    17    22    29   am
    18    22    23    2
    19    34    33    1
    20    29    30    1
    21    35    33    1
    22     4     3    2
    23     2     1    1
    24     2     3    1
    25     2     5    1
    26    33    30    1
    27    30    31    1
    28    36    37    1
    29    36    31   am
    30     5     6    1
    31    44    42   ar
    32    44    46   ar
    33    37    38    1
    34    37    40    1
    35    42    41   ar
    36    31    32    2
    37    38    39    2
    38    47    46    1
    39    46    45   ar
    40    99    97    1
    41    41    40    1
    42    41    43   ar
    43     6     8   ar
    44     6     7   ar
    45    98    96    1
    46     8    10   ar
    47    45    43   ar
    48    97    96    1
    49     7     9   ar
    50    96    93    1
    51    10     9   ar
    52    93    92    1
    53    93    94    1
    54    87    89   ar
    55    87    86   ar
    56    92    83   am
    57    89    91   ar
    58    95    94    2
    59   146   145    1
    60    85    86    1
    61    85    82    1
    62    86    88   ar
    63    83    82    1
    64    83    84    2
    65    82    81    1
    66    91    90   ar
    67   155   153   ar
    68   155   156   ar
    69   153   152   ar
    70   144   143    2
    71   156   158   ar
    72   156   154   ar
    73   145   142    1
    74   127   125   am
    75   152   151    1
    76   152   154   ar
    77   158   160   ar
    78    88    90   ar
    79   151   148    1
    80   154   157   ar
    81   132   133    1
    82   132   129    1
    83   131   130    2
    84   142   143    1
    85   142   141    1
    86   143   147   am
    87   130   129    1
    88   160   159   ar
    89   137   136    2
    90   157   159   ar
    91   125   124    1
    92   125   126    2
    93   129   128    1
    94   147   148    1
    95   148   149    1
    96   141   136   am
    97   136   135    1
    98   211   210    2
    99   124   123    1
   100   210   209    1
   101   206   204    1
   102   134   135    1
   103   149   161   am
   104   149   150    2
   105    57    56    1
   106   209   208    1
   107   209   212    1
   108   161   162    1
   109   204   205    1
   110   204   201    1
   111   135   138    1
   112   203   202    2
   113   164   163    2
   114   123   120    1
   115   208   202   am
   116   202   201    1
   117   205   207    1
   118   138   139    1
   119   138   140    1
   120   170   171    1
   121   170   169    1
   122   120   121    1
   123   120   119    1
   124   171   173   ar
   125   171   172   ar
   126   163   162    1
   127   163   165   am
   128   212   213    1
   129   121   122    2
   130   201   200    1
   131    56    55    2
   132    56    58    1
   133    55    54    1
   134   166   165    1
   135   166   169    1
   136   166   167    1
   137   119   115   am
   138   200   198   am
   139   116   115    2
   140   213   215   ar
   141   213   214   ar
   142   215   217   ar
   143   174   167   am
   144   174   175    1
   145   115   114    1
   146    54    53    1
   147   167   168    2
   148   214   216   ar
   149   198   199    2
   150   198   197    1
   151   217   218   ar
   152    53    52    1
   153   175   176    1
   154   177   176    2
   155   114   113    1
   156   114   117    1
   157   176   178   am
   158   216   218   ar
   159   187   186    2
   160   218   219    1
   161    62    61    2
   162   183   118    1
   163   183   182    1
   164   197   196    1
   165    48    49    1
   166   118   117    1
   167   113   110   am
   168    52    49    1
   169    67    65   ar
   170    76    75    1
   171   112   109    1
   172    80    79    2
   173    64    65    1
   174    64    63    1
   175   186   196   am
   176   186   185    1
   177    65    66   ar
   178   110   111    2
   179   110   109    1
   180   178   179    1
   181    49    50    1
   182    61    60    1
   183    61    68   am
   184    75    74    1
   185    69    70    1
   186    69    72    1
   187    69    68    1
   188    71    70    2
   189   109   108    1
   190   182   179    1
   191    79    78    1
   192   184   185    1
   193    70    77   am
   194   179   180    1
   195    60    63    1
   196    60    59    1
   197    72    73    1
   198   185   188    1
   199   188   189    1
   200   107   105   ar
   201   106   105   ar
   202    77    78    1
   203    50    51    2
   204   191   189   ar
   205   191   193   ar
   206    73    74    1
   207   108   102   am
   208   105   104    1
   209   189   190   ar
   210   180   181    2
   211   193   194   ar
   212   102   103    2
   213   102   101    1
   214   104   101    1
   215   190   192   ar
   216   101   100    1
   217   194   192   ar
   218   194   195    1
