@<TRIPOS>MOLECULE
tmp/1lpkB00.pdb
 206 205 0 0 0
SMALL
GASTEIGER

@<TRIPOS>ATOM
      1  N         13.9390   11.1520   14.5560 N.3    42  HIS42      -0.1241
      2  CA        12.4780   11.0870   14.6210 C.3    42  HIS42       0.1621
      3  C         11.8260   12.4350   14.9260 C.2    42  HIS42       0.2264
      4  O         10.6660   12.6890   14.5810 O.2    42  HIS42      -0.2867
      5  CB        12.0160    9.9850   15.5900 C.3    42  HIS42       0.0745
      6  CG        11.7970   10.4380   17.0050 C.ar   42  HIS42       0.0817
      7  ND1       12.7180   10.2210   18.0080 N.ar   42  HIS42      -0.2268
      8  CD2       10.7280   11.0210   17.6020 C.ar   42  HIS42       0.1154
      9  CE1       12.2250   10.6390   19.1610 C.ar   42  HIS42       0.1986
     10  NE2       11.0190   11.1280   18.9420 N.ar   42  HIS42      -0.2212
     11  N         11.4340    4.9370   10.7670 N.3    82  LYS82      -0.1231
     12  CA        10.3130    5.2520   11.6410 C.3    82  LYS82       0.1693
     13  C          9.6390    3.9900   12.1330 C.2    82  LYS82       0.2592
     14  O          8.8820    4.0140   13.0940 O.2    82  LYS82      -0.2718
     15  CB         9.2850    6.1120   10.9060 C.3    82  LYS82       0.0285
     16  CG         8.3160    6.8470   11.8300 C.3    82  LYS82       0.0035
     17  CD         9.0200    7.9610   12.6070 C.3    82  LYS82       0.0206
     18  CE         8.3390    9.3110   12.3750 C.3    82  LYS82       0.1093
     19  NZ         8.8840   10.3780   13.2620 N.3    82  LYS82      -0.1314
     20  N          9.8990    2.8900   11.4440 N.am   83  GLU83      -0.1966
     21  CA         9.3170    1.6100   11.7980 C.3    83  GLU83       0.1733
     22  C          9.8090    1.0830   13.1410 C.2    83  GLU83       0.2617
     23  O          9.0130    0.7970   14.0320 O.2    83  GLU83      -0.2715
     24  CB         9.6190    0.5990   10.6990 C.3    83  GLU83       0.0429
     25  CG         8.4610    0.3580    9.7650 C.3    83  GLU83       0.1163
     26  CD         7.3960   -0.5200   10.3970 C.2    83  GLU83       0.3649
     27  OE1        7.6630   -1.7330   10.5980 O.co2  83  GLU83      -0.2457
     28  OE2        6.3000    0.0080   10.7030 O.co2  83  GLU83      -0.2457
     29  N         11.1270    0.9560   13.2670 N.am   84  THR84      -0.1937
     30  CA        11.7630    0.4360   14.4720 C.3    84  THR84       0.2028
     31  C         12.3880    1.5250   15.3360 C.2    84  THR84       0.2642
     32  O         12.7520    1.2730   16.4910 O.2    84  THR84      -0.2714
     33  CB        12.9270   -0.4860   14.0890 C.3    84  THR84       0.1808
     34  OG1       13.6160    0.0780   12.9680 O.3    84  THR84      -0.2208
     35  CG2       12.4340   -1.8750   13.7240 C.3    84  THR84       0.0379
     36  N         12.5650    2.7090   14.7480 N.am   85  TYR85      -0.1973
     37  CA        13.2090    3.8340   15.4190 C.3    85  TYR85       0.1639
     38  C         14.7050    3.5680   15.4920 C.2    85  TYR85       0.2290
     39  O         15.4030    4.1140   16.3440 O.2    85  TYR85      -0.2864
     40  CB        12.6300    4.0990   16.8060 C.3    85  TYR85       0.0560
     41  CG        11.6710    5.2640   16.8560 C.ar   85  TYR85      -0.0198
     42  CD1       10.7890    5.5120   15.8010 C.ar   85  TYR85      -0.0009
     43  CD2       11.6190    6.1010   17.9730 C.ar   85  TYR85      -0.0009
     44  CE1        9.8740    6.5570   15.8540 C.ar   85  TYR85       0.0417
     45  CE2       10.7120    7.1510   18.0420 C.ar   85  TYR85       0.0417
     46  CZ         9.8370    7.3750   16.9750 C.ar   85  TYR85       0.1957
     47  OH         8.9300    8.4170   17.0290 O.3    85  TYR85      -0.2866
     48  N          7.3400   15.8150   29.1710 N.3   132  ARG132     -0.1245
     49  CA         6.2390   15.5630   30.0930 C.3   132  ARG132      0.1563
     50  C          6.7680   15.1040   31.4360 C.2   132  ARG132      0.2260
     51  O          7.7440   14.3580   31.4960 O.2   132  ARG132     -0.2867
     52  CB         5.3340   14.4470   29.5630 C.3   132  ARG132      0.0307
     53  CG         4.6090   14.7500   28.2860 C.3   132  ARG132      0.0489
     54  CD         3.6680   13.6160   27.9520 C.3   132  ARG132      0.2205
     55  NE         3.3550   13.5740   26.5310 N.pl3 132  ARG132     -0.0865
     56  CZ         2.1930   13.9370   25.9960 C.cat 132  ARG132      0.5346
     57  NH1        1.2150   14.3850   26.7650 N.pl3 132  ARG132      0.1354
     58  NH2        1.9970   13.8260   24.6950 N.pl3 132  ARG132      0.1354
     59  N          3.2980   10.4700   31.9860 N.3   135  GLU135     -0.1245
     60  CA         2.9360    9.9500   30.6710 C.3   135  GLU135      0.1567
     61  C          1.8130   10.7210   29.9820 C.2   135  GLU135      0.2260
     62  O          1.9030   11.0330   28.7990 O.2   135  GLU135     -0.2867
     63  CB         2.5700    8.4700   30.7800 C.3   135  GLU135      0.0388
     64  CG         2.4890    7.7470   29.4530 C.3   135  GLU135      0.1160
     65  CD         2.2050    6.2710   29.6220 C.2   135  GLU135      0.3649
     66  OE1        2.7430    5.6550   30.5690 O.co2 135  GLU135     -0.2457
     67  OE2        1.4410    5.7230   28.8020 O.co2 135  GLU135     -0.2457
     68  N          9.1930   -4.3880   21.7980 N.3   162  PHE162     -0.1227
     69  CA         9.7120   -3.9950   20.4950 C.3   162  PHE162      0.1736
     70  C         11.1910   -4.3220   20.4760 C.2   162  PHE162      0.2595
     71  O         11.8210   -4.4300   21.5280 O.2   162  PHE162     -0.2718
     72  CB         9.4700   -2.5160   20.2220 C.3   162  PHE162      0.0547
     73  CG         8.0190   -2.1250   20.2530 C.ar  162  PHE162     -0.0202
     74  CD1        7.3650   -1.7400   19.0910 C.ar  162  PHE162     -0.0042
     75  CD2        7.3140   -2.1080   21.4500 C.ar  162  PHE162     -0.0042
     76  CE1        6.0310   -1.3380   19.1160 C.ar  162  PHE162     -0.0003
     77  CE2        5.9820   -1.7110   21.4890 C.ar  162  PHE162     -0.0003
     78  CZ         5.3380   -1.3210   20.3130 C.ar  162  PHE162     -0.0000
     79  N         11.7410   -4.5280   19.2890 N.am  163  ILE163     -0.1980
     80  CA        13.1470   -4.8890   19.1680 C.3   163  ILE163      0.1595
     81  C         14.1510   -3.8360   19.6290 C.2   163  ILE163      0.2287
     82  O         14.0100   -2.6420   19.3370 O.2   163  ILE163     -0.2864
     83  CB        13.4860   -5.3480   17.7400 C.3   163  ILE163      0.0276
     84  CG1       14.9320   -5.8360   17.6560 C.3   163  ILE163      0.0022
     85  CG2       13.1950   -4.2490   16.7320 C.3   163  ILE163      0.0022
     86  CD1       15.4900   -5.8230   16.2580 C.3   163  ILE163      0.0001
     87  N         11.8240    8.4220   34.7720 N.3   179  ASP179     -0.1225
     88  CA        12.1500    8.0670   33.3980 C.3   179  ASP179      0.1805
     89  C         12.0010    9.3140   32.5480 C.2   179  ASP179      0.2598
     90  O         11.4930   10.3310   33.0150 O.2   179  ASP179     -0.2718
     91  CB        11.1070    7.0380   32.9380 C.3   179  ASP179      0.1424
     92  CG        11.4120    6.4260   31.5990 C.2   179  ASP179      0.3668
     93  OD1       12.4920    6.6720   31.0280 O.co2 179  ASP179     -0.2456
     94  OD2       10.5510    5.6660   31.1210 O.co2 179  ASP179     -0.2456
     95  N         12.5580    9.2850   31.3480 N.am  180  ALA180     -0.1966
     96  CA        12.4010   10.4000   30.4390 C.3   180  ALA180      0.1728
     97  C         10.9740   10.2030   29.9170 C.2   180  ALA180      0.2616
     98  O         10.2970    9.2300   30.2920 O.2   180  ALA180     -0.2715
     99  CB        13.4150   10.3120   29.3030 C.3   180  ALA180      0.0334
    100  N         10.4970   11.1260   29.0920 N.am  181  CYS181     -0.1954
    101  CA         9.1510   11.0080   28.5490 C.3   181  CYS181      0.1843
    102  C          9.0130   11.8450   27.2930 C.2   181  CYS181      0.2625
    103  O          9.9770   12.4740   26.8510 O.2   181  CYS181     -0.2714
    104  CB         8.1060   11.4130   29.5830 C.3   181  CYS181      0.0997
    105  SG         6.4500   10.7910   29.1610 S.3   181  CYS181     -0.0797
    106  N          7.8510   11.7770   26.6570 N.am  182  GLN182     -0.1977
    107  CA         7.6210   12.5520   25.4490 C.3   182  GLN182      0.1601
    108  C          8.0710   14.0020   25.6590 C.2   182  GLN182      0.2287
    109  O          7.8610   14.5980   26.7280 O.2   182  GLN182     -0.2864
    110  CB         6.1510   12.4930   25.0430 C.3   182  GLN182      0.0394
    111  CG         5.8650   12.9890   23.6390 C.3   182  GLN182      0.0908
    112  CD         6.5830   12.1680   22.5800 C.2   182  GLN182      0.2608
    113  OE1        7.4900   11.3900   22.8780 O.2   182  GLN182     -0.2717
    114  NE2        6.1730   12.3360   21.3310 N.am  182  GLN182     -0.0878
    115  N         12.5700   13.6610   24.0960 N.3   185  SER185     -0.1217
    116  CA        13.0870   13.0040   22.9090 C.3   185  SER185      0.1889
    117  C         14.1210   13.8160   22.1460 C.2   185  SER185      0.2288
    118  O         13.9240   14.9990   21.9140 O.2   185  SER185     -0.2866
    119  CB        11.9080   12.6110   22.0230 C.3   185  SER185      0.2089
    120  OG        10.7990   12.2520   22.8470 O.3   185  SER185     -0.2183
    121  N         17.7530   10.6690   23.8240 N.3   203  VAL203     -0.1231
    122  CA        16.4510   10.1370   24.2240 C.3   203  VAL203      0.1692
    123  C         15.7150    9.6780   22.9600 C.2   203  VAL203      0.2593
    124  O         15.4600   10.4820   22.0670 O.2   203  VAL203     -0.2718
    125  CB        15.5960   11.1980   24.9780 C.3   203  VAL203      0.0266
    126  CG1       14.2380   10.6490   25.3380 C.3   203  VAL203      0.0020
    127  CG2       16.2960   11.6640   26.2320 C.3   203  VAL203      0.0020
    128  N         15.4510    8.3800   22.8460 N.am  204  SER204     -0.1938
    129  CA        14.7700    7.8590   21.6710 C.3   204  SER204      0.2055
    130  C         13.2750    7.5620   21.8400 C.2   204  SER204      0.2643
    131  O         12.4270    8.2630   21.2800 O.2   204  SER204     -0.2714
    132  CB        15.5130    6.6480   21.0940 C.3   204  SER204      0.2130
    133  OG        15.0960    6.3690   19.7610 O.3   204  SER204     -0.2179
    134  N         12.9520    6.5270   22.6090 N.am  205  TRP205     -0.1959
    135  CA        11.5650    6.1300   22.8050 C.3   205  TRP205      0.1771
    136  C         11.4130    5.3180   24.0780 C.2   205  TRP205      0.2620
    137  O         12.3410    5.2160   24.8780 O.2   205  TRP205     -0.2715
    138  CB        11.0590    5.3260   21.5980 C.3   205  TRP205      0.0590
    139  CG        11.8500    4.0770   21.2860 C.ar  205  TRP205      0.0006
    140  CD1       13.0330    3.9980   20.6040 C.ar  205  TRP205      0.0946
    141  CD2       11.5100    2.7300   21.6570 C.ar  205  TRP205      0.0152
    142  NE1       13.4550    2.6890   20.5320 N.ar  205  TRP205     -0.2442
    143  CE2       12.5420    1.8900   21.1680 C.ar  205  TRP205      0.0810
    144  CE3       10.4390    2.1480   22.3550 C.ar  205  TRP205      0.0012
    145  CZ2       12.5290    0.5020   21.3580 C.ar  205  TRP205      0.0191
    146  CZ3       10.4290    0.7730   22.5400 C.ar  205  TRP205      0.0001
    147  CH2       11.4690   -0.0350   22.0430 C.ar  205  TRP205      0.0015
    148  N         10.2220    4.7830   24.2830 N.am  206  GLY206     -0.1940
    149  CA         9.9650    3.9680   25.4520 C.3   206  GLY206      0.2014
    150  C          8.5190    3.5310   25.3810 C.2   206  GLY206      0.2639
    151  O          7.7880    4.0100   24.5130 O.2   206  GLY206     -0.2714
    152  N          8.1460    2.5340   26.1750 N.am  207  GLU207     -0.1963
    153  CA         6.7630    2.0580   26.2080 C.3   207  GLU207      0.1733
    154  C          6.1320    2.7870   27.3890 C.2   207  GLU207      0.2617
    155  O          6.3560    2.4190   28.5510 O.2   207  GLU207     -0.2715
    156  CB         6.7170    0.5420   26.4040 C.3   207  GLU207      0.0429
    157  CG         7.1380   -0.2520   25.1640 C.3   207  GLU207      0.1163
    158  CD         7.1670   -1.7540   25.4080 C.2   207  GLU207      0.3649
    159  OE1        6.1370   -2.3060   25.8450 O.co2 207  GLU207     -0.2457
    160  OE2        8.2170   -2.3850   25.1670 O.co2 207  GLU207     -0.2457
    161  N          5.4380    3.8840   27.0890 N.am  208  GLY208     -0.1940
    162  CA         4.8470    4.6890   28.1380 C.3   208  GLY208      0.2014
    163  C          5.9780    5.4590   28.8020 C.2   208  GLY208      0.2639
    164  O          7.0460    5.6300   28.2090 O.2   208  GLY208     -0.2714
    165  N          5.7670    5.9140   30.0290 N.am  209  CYS209     -0.1967
    166  CA         6.8030    6.6480   30.7440 C.3   209  CYS209      0.1712
    167  C          6.8430    6.1770   32.1850 C.2   209  CYS209      0.2296
    168  O          5.8130    6.1700   32.8640 O.2   209  CYS209     -0.2864
    169  CB         6.5560    8.1530   30.6650 C.3   209  CYS209      0.0983
    170  SG         6.7490    8.7960   28.9770 S.3   209  CYS209     -0.0798
    171  N         11.8350    0.2570   30.4970 N.3   215  TYR215     -0.1227
    172  CA        12.9350    1.1980   30.7020 C.3   215  TYR215      0.1736
    173  C         12.9230    2.2330   29.5880 C.2   215  TYR215      0.2596
    174  O         12.1680    2.0980   28.6230 O.2   215  TYR215     -0.2718
    175  CB        14.2760    0.4680   30.6460 C.3   215  TYR215      0.0548
    176  CG        14.3680   -0.7310   31.5420 C.ar  215  TYR215     -0.0200
    177  CD1       14.6630   -0.5830   32.8930 C.ar  215  TYR215     -0.0009
    178  CD2       14.1730   -2.0180   31.0380 C.ar  215  TYR215     -0.0009
    179  CE1       14.7690   -1.6800   33.7230 C.ar  215  TYR215      0.0417
    180  CE2       14.2760   -3.1280   31.8670 C.ar  215  TYR215      0.0417
    181  CZ        14.5770   -2.9490   33.2070 C.ar  215  TYR215      0.1957
    182  OH        14.7140   -4.0320   34.0420 O.3   215  TYR215     -0.2866
    183  N         13.7700    3.2520   29.7140 N.am  216  GLY216     -0.1942
    184  CA        13.8570    4.2590   28.6770 C.3   216  GLY216      0.2014
    185  C         14.8320    3.7210   27.6540 C.2   216  GLY216      0.2639
    186  O         15.8030    3.0540   28.0170 O.2   216  GLY216     -0.2714
    187  N         14.5440    3.9450   26.3790 N.am  217  ILE217     -0.1963
    188  CA        15.4030    3.4650   25.3050 C.3   217  ILE217      0.1727
    189  C         16.1270    4.6580   24.6770 C.2   217  ILE217      0.2616
    190  O         15.4980    5.6430   24.2820 O.2   217  ILE217     -0.2715
    191  CB        14.5910    2.6880   24.2370 C.3   217  ILE217      0.0290
    192  CG1       13.5680    1.7380   24.8890 C.3   217  ILE217      0.0022
    193  CG2       15.5280    1.9630   23.2700 C.3   217  ILE217      0.0023
    194  CD1       14.1640    0.7580   25.9200 C.3   217  ILE217      0.0001
    195  N         17.4430    4.5430   24.5400 N.am  218  TYR218     -0.1974
    196  CA        18.2660    5.6220   24.0110 C.3   218  TYR218      0.1639
    197  C         19.0540    5.1940   22.7990 C.2   218  TYR218      0.2290
    198  O         19.3390    4.0100   22.6240 O.2   218  TYR218     -0.2864
    199  CB        19.2740    6.0670   25.0800 C.3   218  TYR218      0.0560
    200  CG        18.6360    6.5960   26.3400 C.ar  218  TYR218     -0.0198
    201  CD1       18.0410    5.7280   27.2560 C.ar  218  TYR218     -0.0009
    202  CD2       18.5180    7.9700   26.5640 C.ar  218  TYR218     -0.0009
    203  CE1       17.3310    6.2130   28.3490 C.ar  218  TYR218      0.0417
    204  CE2       17.8140    8.4600   27.6570 C.ar  218  TYR218      0.0417
    205  CZ        17.2190    7.5770   28.5450 C.ar  218  TYR218      0.1957
    206  OH        16.5100    8.0460   29.6320 O.3   218  TYR218     -0.2866
@<TRIPOS>BOND
     1    25    26    1
     2    25    24    1
     3    26    27   ar
     4    26    28   ar
     5    24    21    1
     6    11    12    1
     7    15    12    1
     8    15    16    1
     9    20    21    1
    10    20    13   am
    11    12    13    1
    12    21    22    1
    13    16    17    1
    14    13    14    2
    15    18    17    1
    16    18    19    1
    17    34    33    1
    18    22    29   am
    19    22    23    2
    20    29    30    1
    21    35    33    1
    22    33    30    1
    23    30    31    1
    24     1     2    1
    25     4     3    2
    26     2     3    1
    27     2     5    1
    28    36    31   am
    29    36    37    1
    30    31    32    2
    31    37    38    1
    32    37    40    1
    33    38    39    2
    34     5     6    1
    35    42    44   ar
    36    42    41   ar
    37    44    46   ar
    38    86    84    1
    39    85    83    1
    40    40    41    1
    41    41    43   ar
    42    46    47    1
    43    46    45   ar
    44     6     8   ar
    45     6     7   ar
    46     8    10   ar
    47    84    83    1
    48    83    80    1
    49    43    45   ar
    50     7     9   ar
    51    10     9   ar
    52    74    76   ar
    53    74    73   ar
    54    76    78   ar
    55    80    79    1
    56    80    81    1
    57    79    70   am
    58    82    81    2
    59   133   132    1
    60    72    73    1
    61    72    69    1
    62    73    75   ar
    63    78    77   ar
    64    70    69    1
    65    70    71    2
    66    69    68    1
    67   142   140   ar
    68   142   143   ar
    69   140   139   ar
    70   132   129    1
    71   143   145   ar
    72   143   141   ar
    73   131   130    2
    74   139   138    1
    75   139   141   ar
    76   114   112   am
    77   145   147   ar
    78    75    77   ar
    79   138   135    1
    80   141   144   ar
    81   129   130    1
    82   129   128    1
    83   130   134   am
    84   118   117    2
    85   119   120    1
    86   119   116    1
    87   147   146   ar
    88   124   123    2
    89   117   116    1
    90   144   146   ar
    91   112   113    2
    92   112   111    1
    93   134   135    1
    94   198   197    2
    95   197   196    1
    96   135   136    1
    97   128   123   am
    98   116   115    1
    99   123   122    1
   100   193   191    1
   101   111   110    1
   102   121   122    1
   103   196   195    1
   104   196   199    1
   105   136   148   am
   106   136   137    2
   107   122   125    1
   108   191   192    1
   109   191   188    1
   110   190   189    2
   111   148   149    1
   112   151   150    2
   113   195   189   am
   114   189   188    1
   115    58    56    1
   116   192   194    1
   117   125   126    1
   118   125   127    1
   119   110   107    1
   120   199   200    1
   121   157   158    1
   122   157   156    1
   123   160   158   ar
   124   188   187    1
   125   150   149    1
   126   150   152   am
   127   158   159   ar
   128   107   108    1
   129   107   106    1
   130   108   109    2
   131    56    55    2
   132    56    57    1
   133   152   153    1
   134   153   156    1
   135   153   154    1
   136   200   202   ar
   137   200   201   ar
   138   187   185   am
   139    55    54    1
   140   202   204   ar
   141   106   102   am
   142   103   102    2
   143   161   154   am
   144   161   162    1
   145   201   203   ar
   146   102   101    1
   147   154   155    2
   148   185   186    2
   149   185   184    1
   150   204   205   ar
   151    54    53    1
   152   162   163    1
   153   164   163    2
   154    53    52    1
   155   203   205   ar
   156   205   206    1
   157   101   100    1
   158   101   104    1
   159   174   173    2
   160   184   183    1
   161    62    61    2
   162    67    65   ar
   163   163   165   am
   164   170   105    1
   165   170   169    1
   166   100    97   am
   167   105   104    1
   168    48    49    1
   169    99    96    1
   170    64    65    1
   171    64    63    1
   172    52    49    1
   173   173   183   am
   174   173   172    1
   175    65    66   ar
   176    97    98    2
   177    97    96    1
   178    61    60    1
   179   165   166    1
   180    49    50    1
   181    96    95    1
   182   171   172    1
   183   175   172    1
   184   175   176    1
   185   169   166    1
   186    60    63    1
   187    60    59    1
   188   166   167    1
   189    93    92   ar
   190   178   176   ar
   191   178   180   ar
   192    94    92   ar
   193    95    89   am
   194    50    51    2
   195   176   177   ar
   196    92    91    1
   197   180   181   ar
   198   167   168    2
   199    89    90    2
   200    89    88    1
   201   177   179   ar
   202    91    88    1
   203   181   179   ar
   204   181   182    1
   205    88    87    1
