@<TRIPOS>MOLECULE
tmp/1lpmA02.pdb
 194 187 0 0 0
SMALL
GASTEIGER

@<TRIPOS>ATOM
      1  N         72.7600   51.9920  -18.0750 N.3   122  GLY122     -0.1210
      2  CA        71.6490   52.8720  -17.7960 C.3   122  GLY122      0.1956
      3  C         71.6520   53.2300  -16.3350 C.2   122  GLY122      0.2612
      4  O         71.7890   52.3540  -15.4840 O.2   122  GLY122     -0.2717
      5  N         71.5740   54.5220  -16.0500 N.am  123  GLY123     -0.1942
      6  CA        71.5450   54.9950  -14.6730 C.3   123  GLY123      0.2014
      7  C         70.7370   56.2780  -14.5500 C.2   123  GLY123      0.2639
      8  O         71.1290   57.1860  -13.8240 O.2   123  GLY123     -0.2714
      9  N         69.6230   56.3550  -15.2810 N.am  124  GLY124     -0.1939
     10  CA        68.7510   57.5280  -15.2660 C.3   124  GLY124      0.2014
     11  C         69.3900   58.8120  -15.7690 C.2   124  GLY124      0.2638
     12  O         68.8980   59.8970  -15.4490 O.2   124  GLY124     -0.2714
     13  N         70.4510   58.6740  -16.5860 N.am  125  PHE125     -0.1973
     14  CA        71.2510   59.7870  -17.1560 C.3   125  PHE125      0.1639
     15  C         71.8300   60.6740  -16.0490 C.2   125  PHE125      0.2290
     16  O         72.2190   61.8090  -16.3090 O.2   125  PHE125     -0.2864
     17  CB        70.4380   60.6480  -18.1400 C.3   125  PHE125      0.0560
     18  CG        69.8790   59.8820  -19.3160 C.ar  125  PHE125     -0.0200
     19  CD1       70.6930   59.5550  -20.3980 C.ar  125  PHE125     -0.0042
     20  CD2       68.5340   59.4880  -19.3420 C.ar  125  PHE125     -0.0042
     21  CE1       70.1770   58.8420  -21.4960 C.ar  125  PHE125     -0.0003
     22  CE2       68.0010   58.7750  -20.4300 C.ar  125  PHE125     -0.0003
     23  CZ        68.8170   58.4490  -21.5090 C.ar  125  PHE125     -0.0000
     24  N         73.5820   58.8210  -12.9490 N.3   127  VAL127     -0.1245
     25  CA        74.5540   58.0110  -12.2220 C.3   127  VAL127      0.1561
     26  C         74.9070   56.8330  -13.1220 C.2   127  VAL127      0.2260
     27  O         74.3490   56.6770  -14.2220 O.2   127  VAL127     -0.2867
     28  CB        73.9830   57.4190  -10.9120 C.3   127  VAL127      0.0252
     29  CG1       73.6180   58.5000   -9.9390 C.3   127  VAL127      0.0019
     30  CG2       72.7940   56.5350  -11.2250 C.3   127  VAL127      0.0019
     31  N         78.6420   46.3260  -14.3030 N.3   133  PHE133     -0.1241
     32  CA        77.9840   45.4500  -15.2470 C.3   133  PHE133      0.1605
     33  C         78.9410   44.3880  -15.7560 C.2   133  PHE133      0.2264
     34  O         79.4620   44.4810  -16.8560 O.2   133  PHE133     -0.2867
     35  CB        77.4070   46.2860  -16.3830 C.3   133  PHE133      0.0534
     36  CG        76.4650   47.3500  -15.9090 C.ar  133  PHE133     -0.0203
     37  CD1       75.1200   47.0500  -15.6660 C.ar  133  PHE133     -0.0042
     38  CD2       76.9210   48.6460  -15.6640 C.ar  133  PHE133     -0.0042
     39  CE1       74.2360   48.0270  -15.1830 C.ar  133  PHE133     -0.0003
     40  CE2       76.0420   49.6310  -15.1780 C.ar  133  PHE133     -0.0003
     41  CZ        74.7020   49.3170  -14.9410 C.ar  133  PHE133     -0.0000
     42  N         70.4850   49.1510  -21.3410 N.3   208  GLU208     -0.1231
     43  CA        69.2410   48.9910  -20.6020 C.3   208  GLU208      0.1699
     44  C         68.8380   50.3140  -20.0080 C.2   208  GLU208      0.2593
     45  O         69.7010   51.0940  -19.6010 O.2   208  GLU208     -0.2718
     46  CB        69.3900   47.9160  -19.5090 C.3   208  GLU208      0.0402
     47  CG        68.1300   47.6550  -18.6600 C.3   208  GLU208      0.1161
     48  CD        68.0200   48.5540  -17.4190 C.2   208  GLU208      0.3649
     49  OE1       68.9980   49.2110  -17.0240 O.co2 208  GLU208     -0.2457
     50  OE2       66.9500   48.6000  -16.8070 O.co2 208  GLU208     -0.2457
     51  N         67.5340   50.5770  -19.9900 N.am  209  SER209     -0.1938
     52  CA        66.9900   51.8190  -19.4460 C.3   209  SER209      0.2055
     53  C         67.6150   53.0430  -20.1350 C.2   209  SER209      0.2642
     54  O         67.3310   53.2970  -21.3070 O.2   209  SER209     -0.2714
     55  CB        67.1890   51.8490  -17.9350 C.3   209  SER209      0.2130
     56  OG        66.5060   52.9780  -17.3640 O.3   209  SER209     -0.2179
     57  N         68.4400   53.8240  -19.4370 N.am  210  ALA210     -0.1977
     58  CA        69.0870   54.9760  -20.0730 C.3   210  ALA210      0.1597
     59  C         70.0490   54.5050  -21.1810 C.2   210  ALA210      0.2287
     60  O         70.2260   55.1800  -22.1940 O.2   210  ALA210     -0.2864
     61  CB        69.8290   55.8040  -19.0460 C.3   210  ALA210      0.0319
     62  N         67.6670   53.8860  -24.1620 N.3   213  MET213     -0.1245
     63  CA        67.1980   55.0920  -24.8230 C.3   213  MET213      0.1570
     64  C         68.3500   55.6690  -25.6240 C.2   213  MET213      0.2261
     65  O         68.1200   56.3180  -26.6590 O.2   213  MET213     -0.2867
     66  CB        66.6770   56.0860  -23.8070 C.3   213  MET213      0.0387
     67  CG        65.5470   55.5150  -23.0210 C.3   213  MET213      0.0595
     68  SD        64.8710   56.7100  -21.9160 S.3   213  MET213     -0.1393
     69  CE        63.1690   56.0940  -21.7870 C.3   213  MET213      0.0692
     70  N         63.1520   59.1330  -26.2840 N.3   245  VAL245     -0.1231
     71  CA        63.1060   59.9200  -25.0570 C.3   245  VAL245      0.1678
     72  C         61.9860   60.9520  -25.3010 C.2   245  VAL245      0.2434
     73  O         61.9930   61.6590  -26.3200 O.2   245  VAL245     -0.2733
     74  CB        64.4580   60.6840  -24.7850 C.3   245  VAL245      0.0265
     75  CG1       64.3450   61.5400  -23.5200 C.3   245  VAL245      0.0020
     76  CG2       65.6320   59.7110  -24.6630 C.3   245  VAL245      0.0020
     77  N         61.0200   61.0550  -24.3670 N.am  246  PRO246     -0.2729
     78  CA        59.8930   61.9900  -24.4730 C.3   246  PRO246      0.1401
     79  C         60.3150   63.3830  -24.0200 C.2   246  PRO246      0.2269
     80  O         59.7230   63.9420  -23.0980 O.2   246  PRO246     -0.2865
     81  CB        58.8910   61.3950  -23.4940 C.3   246  PRO246      0.0296
     82  CG        59.7980   60.9410  -22.3570 C.3   246  PRO246      0.0237
     83  CD        60.9570   60.2930  -23.0960 C.3   246  PRO246      0.0939
     84  N         66.6770   61.5630   -9.9000 N.3   296  PHE296     -0.1227
     85  CA        65.5990   60.7140  -10.4150 C.3   296  PHE296      0.1736
     86  C         64.5930   60.1190   -9.4090 C.2   296  PHE296      0.2595
     87  O         63.4450   59.8510   -9.7650 O.2   296  PHE296     -0.2718
     88  CB        66.1410   59.6400  -11.3890 C.3   296  PHE296      0.0547
     89  CG        67.1500   58.6860  -10.7790 C.ar  296  PHE296     -0.0202
     90  CD1       66.7820   57.7940   -9.7570 C.ar  296  PHE296     -0.0042
     91  CD2       68.4650   58.6630  -11.2370 C.ar  296  PHE296     -0.0042
     92  CE1       67.7040   56.9030   -9.2080 C.ar  296  PHE296     -0.0003
     93  CE2       69.3940   57.7720  -10.6920 C.ar  296  PHE296     -0.0003
     94  CZ        69.0150   56.8930   -9.6780 C.ar  296  PHE296     -0.0000
     95  N         65.0100   59.9240   -8.1610 N.am  297  LEU297     -0.1980
     96  CA        64.1220   59.3600   -7.1520 C.3   297  LEU297      0.1596
     97  C         63.3420   60.4250   -6.4270 C.2   297  LEU297      0.2287
     98  O         62.5000   60.1100   -5.5920 O.2   297  LEU297     -0.2864
     99  CB        64.8960   58.5310   -6.1290 C.3   297  LEU297      0.0297
    100  CG        65.3920   57.1450   -6.5440 C.3   297  LEU297      0.0022
    101  CD1       66.1050   56.5480   -5.3490 C.3   297  LEU297      0.0001
    102  CD2       64.2300   56.2330   -7.0330 C.3   297  LEU297      0.0001
    103  N         60.2360   60.7930  -13.2610 N.3   302  LEU302     -0.1245
    104  CA        60.5070   60.7160  -14.6980 C.3   302  LEU302      0.1561
    105  C         60.8460   62.0360  -15.3730 C.2   302  LEU302      0.2260
    106  O         61.5090   62.0480  -16.4160 O.2   302  LEU302     -0.2867
    107  CB        59.2890   60.1240  -15.3980 C.3   302  LEU302      0.0270
    108  CG        59.4700   59.3410  -16.6870 C.3   302  LEU302      0.0019
    109  CD1       59.7370   57.8790  -16.3180 C.3   302  LEU302      0.0001
    110  CD2       58.2000   59.4510  -17.5390 C.3   302  LEU302      0.0001
    111  N         62.9630   64.1140  -15.5760 N.3   304  LEU304     -0.1245
    112  CA        64.3730   64.2460  -15.2310 C.3   304  LEU304      0.1561
    113  C         64.9440   65.6240  -15.4890 C.2   304  LEU304      0.2260
    114  O         64.5520   66.3120  -16.4390 O.2   304  LEU304     -0.2867
    115  CB        65.2290   63.2030  -15.9940 C.3   304  LEU304      0.0270
    116  CG        64.9090   61.6950  -15.9880 C.3   304  LEU304      0.0019
    117  CD1       65.8620   60.9620  -16.9430 C.3   304  LEU304      0.0001
    118  CD2       64.9960   61.0870  -14.5950 C.3   304  LEU304      0.0001
    119  N         68.7570   64.7570  -19.3650 N.3   307  LEU307     -0.1245
    120  CA        68.4220   63.6840  -20.3050 C.3   307  LEU307      0.1561
    121  C         68.6240   64.1420  -21.7600 C.2   307  LEU307      0.2260
    122  O         68.7580   65.3330  -22.0210 O.2   307  LEU307     -0.2867
    123  CB        66.9590   63.2390  -20.0900 C.3   307  LEU307      0.0270
    124  CG        65.7520   63.9960  -20.6960 C.3   307  LEU307      0.0019
    125  CD1       64.4670   63.2900  -20.2910 C.3   307  LEU307      0.0001
    126  CD2       65.6890   65.4470  -20.2660 C.3   307  LEU307      0.0001
    127  N         58.9810   51.3450   -9.7520 N.3   344  PHE344     -0.1227
    128  CA        60.1050   52.0180   -9.1290 C.3   344  PHE344      0.1736
    129  C         59.8560   53.4990   -9.0130 C.2   344  PHE344      0.2595
    130  O         59.9700   54.0870   -7.9400 O.2   344  PHE344     -0.2718
    131  CB        61.3760   51.7930   -9.9250 C.3   344  PHE344      0.0547
    132  CG        62.3090   50.8970   -9.2440 C.ar  344  PHE344     -0.0202
    133  CD1       62.8620   51.2780   -8.0260 C.ar  344  PHE344     -0.0042
    134  CD2       62.5670   49.6350   -9.7480 C.ar  344  PHE344     -0.0042
    135  CE1       63.6610   50.4030   -7.3070 C.ar  344  PHE344     -0.0003
    136  CE2       63.3600   48.7480   -9.0490 C.ar  344  PHE344     -0.0003
    137  CZ        63.9130   49.1270   -7.8190 C.ar  344  PHE344     -0.0000
    138  N         59.4770   54.0930  -10.1310 N.am  345  PHE345     -0.1976
    139  CA        59.2110   55.5210  -10.1880 C.3   345  PHE345      0.1639
    140  C         57.9640   55.9420   -9.3810 C.2   345  PHE345      0.2290
    141  O         57.8890   57.0510   -8.8520 O.2   345  PHE345     -0.2864
    142  CB        59.1270   55.9380  -11.6630 C.3   345  PHE345      0.0560
    143  CG        60.2770   55.4120  -12.4960 C.ar  345  PHE345     -0.0200
    144  CD1       61.5210   56.0290  -12.4620 C.ar  345  PHE345     -0.0042
    145  CD2       60.1260   54.2770  -13.2770 C.ar  345  PHE345     -0.0042
    146  CE1       62.5980   55.5170  -13.1970 C.ar  345  PHE345     -0.0003
    147  CE2       61.1980   53.7610  -14.0110 C.ar  345  PHE345     -0.0003
    148  CZ        62.4330   54.3830  -13.9710 C.ar  345  PHE345     -0.0000
    149  N         57.0780   56.1610  -20.3990 N.3   414  GLY414     -0.1210
    150  CA        58.5150   56.0980  -20.4570 C.3   414  GLY414      0.1956
    151  C         59.0930   54.8970  -21.1800 C.2   414  GLY414      0.2611
    152  O         60.1330   55.0200  -21.8350 O.2   414  GLY414     -0.2717
    153  N         58.4450   53.7400  -21.0890 N.am  415  PHE415     -0.1976
    154  CA        59.0110   52.5580  -21.7220 C.3   415  PHE415      0.1639
    155  C         58.0750   51.6480  -22.5100 C.2   415  PHE415      0.2290
    156  O         58.1100   51.6240  -23.7500 O.2   415  PHE415     -0.2864
    157  CB        59.7670   51.7160  -20.6720 C.3   415  PHE415      0.0560
    158  CG        60.6220   52.5280  -19.7260 C.ar  415  PHE415     -0.0200
    159  CD1       60.0680   53.0840  -18.5690 C.ar  415  PHE415     -0.0042
    160  CD2       61.9570   52.7960  -20.0230 C.ar  415  PHE415     -0.0042
    161  CE1       60.8210   53.9040  -17.7240 C.ar  415  PHE415     -0.0003
    162  CE2       62.7200   53.6130  -19.1890 C.ar  415  PHE415     -0.0003
    163  CZ        62.1450   54.1720  -18.0330 C.ar  415  PHE415     -0.0000
    164  N         61.6100   47.2410  -13.0680 N.3   449  HIS449     -0.1226
    165  CA        62.5860   47.8690  -13.9260 C.3   449  HIS449      0.1752
    166  C         63.9780   47.5150  -13.4900 C.2   449  HIS449      0.2596
    167  O         64.3130   47.6870  -12.3170 O.2   449  HIS449     -0.2718
    168  CB        62.4010   49.3670  -13.8270 C.3   449  HIS449      0.0759
    169  CG        63.1310   50.1440  -14.8730 C.ar  449  HIS449      0.0818
    170  ND1       63.0470   49.8960  -16.2270 N.ar  449  HIS449     -0.2268
    171  CD2       63.8830   51.2670  -14.7500 C.ar  449  HIS449      0.1154
    172  CE1       63.7120   50.8560  -16.8680 C.ar  449  HIS449      0.1986
    173  NE2       64.2350   51.7120  -16.0130 N.ar  449  HIS449     -0.2212
    174  N         64.7730   47.0090  -14.4360 N.am  450  SER450     -0.1952
    175  CA        66.1860   46.6190  -14.2380 C.3   450  SER450      0.1924
    176  C         66.4960   45.2120  -13.7180 C.2   450  SER450      0.2314
    177  O         67.6540   44.8210  -13.6870 O.2   450  SER450     -0.2863
    178  CB        66.9790   47.6850  -13.4410 C.3   450  SER450      0.2116
    179  OG        66.8860   47.5290  -12.0350 O.3   450  SER450     -0.2180
    180  N         69.0980   43.0570  -15.5460 N.3   453  ILE453     -0.1245
    181  CA        70.5340   43.2120  -15.3100 C.3   453  ILE453      0.1561
    182  C         71.0040   42.0450  -14.4240 C.2   453  ILE453      0.2260
    183  O         72.0760   41.4680  -14.6340 O.2   453  ILE453     -0.2867
    184  CB        70.8390   44.5290  -14.5590 C.3   453  ILE453      0.0252
    185  CG1       70.4890   45.7440  -15.4240 C.3   453  ILE453      0.0019
    186  CG2       72.2930   44.5530  -14.1170 C.3   453  ILE453      0.0019
    187  CD1       71.2310   45.8160  -16.7360 C.3   453  ILE453      0.0001
    188  N         58.7420   66.0630  -21.5250 N.3   534  VAL534     -0.1245
    189  CA        59.3260   66.7450  -20.3780 C.3   534  VAL534      0.1561
    190  C         60.4980   67.6330  -20.8040 C.2   534  VAL534      0.2260
    191  O         60.7630   68.6160  -20.0880 O.2   534  VAL534     -0.2867
    192  CB        59.7930   65.7480  -19.2760 C.3   534  VAL534      0.0252
    193  CG1       58.5950   64.9800  -18.7390 C.3   534  VAL534      0.0019
    194  CG2       60.8650   64.7950  -19.8080 C.3   534  VAL534      0.0019
@<TRIPOS>BOND
     1    65    64    2
     2    73    72    2
     3    70    71    1
     4    64    63    1
     5    72    71    1
     6    72    77   am
     7    71    74    1
     8    63    62    1
     9    63    66    1
    10    74    76    1
    11    74    75    1
    12    78    77    1
    13    78    79    1
    14    78    81    1
    15    77    83    1
    16    79    80    2
    17    66    67    1
    18   156   155    2
    19    81    82    1
    20    83    82    1
    21    67    68    1
    22   155   154    1
    23    60    59    2
    24   122   121    2
    25    68    69    1
    26   152   151    2
    27   121   120    1
    28   154   153    1
    29   154   157    1
    30   188   189    1
    31    23    21   ar
    32    23    22   ar
    33    21    19   ar
    34    42    43    1
    35    54    53    2
    36    59    58    1
    37   151   153   am
    38   151   150    1
    39   190   189    1
    40   190   191    2
    41   124   125    1
    42   124   126    1
    43   124   123    1
    44   157   158    1
    45    43    44    1
    46    43    46    1
    47   150   149    1
    48    22    20   ar
    49    19    18   ar
    50   189   192    1
    51   120   123    1
    52   120   119    1
    53    53    52    1
    54    53    57   am
    55    58    57    1
    56    58    61    1
    57   160   158   ar
    58   160   162   ar
    59    44    51   am
    60    44    45    2
    61    51    52    1
    62   194   192    1
    63   158   159   ar
    64    46    47    1
    65    52    55    1
    66    20    18   ar
    67    18    17    1
    68   192   193    1
    69   162   163   ar
    70    47    48    1
    71   159   161   ar
    72    17    14    1
    73     1     2    1
    74   163   161   ar
    75    55    56    1
    76     2     3    1
    77   110   108    1
    78    48    49   ar
    79    48    50   ar
    80    14    13    1
    81    14    15    1
    82   117   116    1
    83   172   170   ar
    84   172   173   ar
    85    34    33    2
    86   187   185    1
    87   108   109    1
    88   108   107    1
    89    13    11   am
    90   114   113    2
    91   106   105    2
    92    35    36    1
    93    35    32    1
    94     3     5   am
    95     3     4    2
    96    16    15    2
    97   170   169   ar
    98     5     6    1
    99   173   171   ar
   100   115   116    1
   101   115   112    1
   102   116   118    1
   103    36    37   ar
   104    36    38   ar
   105    11    12    2
   106    11    10    1
   107    33    32    1
   108    37    39   ar
   109    38    40   ar
   110   111   112    1
   111   180   181    1
   112   113   112    1
   113   185   184    1
   114   107   104    1
   115   105   104    1
   116   181   184    1
   117   181   182    1
   118     9    10    1
   119     9     7   am
   120    32    31    1
   121    39    41   ar
   122    40    41   ar
   123   169   171   ar
   124   169   168    1
   125   104   103    1
   126     6     7    1
   127   183   182    2
   128   184   186    1
   129     7     8    2
   130   174   175    1
   131   174   166   am
   132   175   176    1
   133   175   178    1
   134    27    26    2
   135   147   148   ar
   136   147   145   ar
   137   148   146   ar
   138   165   168    1
   139   165   166    1
   140   165   164    1
   141   176   177    2
   142   166   167    2
   143   178   179    1
   144   145   143   ar
   145   146   144   ar
   146    26    25    1
   147    24    25    1
   148   143   144   ar
   149   143   142    1
   150    25    28    1
   151   142   139    1
   152    88    89    1
   153    88    85    1
   154    91    89   ar
   155    91    93   ar
   156    30    28    1
   157    28    29    1
   158    89    90   ar
   159    93    94   ar
   160    85    84    1
   161    85    86    1
   162   139   138    1
   163   139   140    1
   164   138   129   am
   165   131   132    1
   166   131   128    1
   167    87    86    2
   168    90    92   ar
   169   127   128    1
   170   134   132   ar
   171   134   136   ar
   172    94    92   ar
   173    86    95   am
   174   140   141    2
   175   132   133   ar
   176   128   129    1
   177   136   137   ar
   178   129   130    2
   179    95    96    1
   180   133   135   ar
   181   137   135   ar
   182    96    97    1
   183    96    99    1
   184   102   100    1
   185   100    99    1
   186   100   101    1
   187    97    98    2
