@<TRIPOS>MOLECULE
tmp/1lpnA03.pdb
 98 96 0 0 0
SMALL
GASTEIGER

@<TRIPOS>ATOM
      1  N         70.4690   53.8540  -15.6230 N.3   123  GLY123     -0.1210
      2  CA        70.6760   54.7430  -14.4830 C.3   123  GLY123      0.1956
      3  C         70.0550   56.1300  -14.5510 C.2   123  GLY123      0.2612
      4  O         70.5810   57.0860  -13.9780 O.2   123  GLY123     -0.2717
      5  N         68.9170   56.2300  -15.2320 N.am  124  GLY124     -0.1956
      6  CA        68.1880   57.4810  -15.3610 C.3   124  GLY124      0.1869
      7  C         68.9140   58.7020  -15.8820 C.2   124  GLY124      0.2309
      8  O         68.4780   59.8220  -15.6040 O.2   124  GLY124     -0.2863
      9  N         67.2010   50.3950  -19.9340 N.3   209  SER209     -0.1217
     10  CA        66.6150   51.6370  -19.4600 C.3   209  SER209      0.1889
     11  C         67.2720   52.8550  -20.1370 C.2   209  SER209      0.2288
     12  O         67.1160   53.0390  -21.3490 O.2   209  SER209     -0.2866
     13  CB        66.6280   51.7110  -17.9250 C.3   209  SER209      0.2089
     14  OG        65.8260   52.8210  -17.4310 O.3   209  SER209     -0.2183
     15  N         66.1900   61.4760   -9.9630 N.3   296  PHE296     -0.1227
     16  CA        65.0660   60.6930  -10.4870 C.3   296  PHE296      0.1736
     17  C         64.1490   59.9580   -9.4960 C.2   296  PHE296      0.2595
     18  O         63.0700   59.5150   -9.8650 O.2   296  PHE296     -0.2718
     19  CB        65.5280   59.7550  -11.6140 C.3   296  PHE296      0.0547
     20  CG        66.4140   58.6150  -11.1580 C.ar  296  PHE296     -0.0202
     21  CD1       65.8570   57.4060  -10.7310 C.ar  296  PHE296     -0.0042
     22  CD2       67.8000   58.7410  -11.1640 C.ar  296  PHE296     -0.0042
     23  CE1       66.6680   56.3560  -10.3180 C.ar  296  PHE296     -0.0003
     24  CE2       68.6180   57.6870  -10.7490 C.ar  296  PHE296     -0.0003
     25  CZ        68.0560   56.5030  -10.3280 C.ar  296  PHE296     -0.0000
     26  N         64.5760   59.8390   -8.2450 N.am  297  LEU297     -0.1980
     27  CA        63.7880   59.1720   -7.2220 C.3   297  LEU297      0.1596
     28  C         63.0730   60.2040   -6.3780 C.2   297  LEU297      0.2287
     29  O         62.3330   59.8580   -5.4630 O.2   297  LEU297     -0.2864
     30  CB        64.6710   58.2940   -6.3360 C.3   297  LEU297      0.0297
     31  CG        65.1630   56.9870   -6.9780 C.3   297  LEU297      0.0022
     32  CD1       65.9420   56.1860   -5.9390 C.3   297  LEU297      0.0001
     33  CD2       63.9760   56.1590   -7.5140 C.3   297  LEU297      0.0001
     34  N         58.7260   50.9770   -9.3400 N.3   344  PHE344     -0.1227
     35  CA        59.7960   51.4830   -8.4930 C.3   344  PHE344      0.1736
     36  C         59.7000   52.9920   -8.4970 C.2   344  PHE344      0.2595
     37  O         59.8610   53.6370   -7.4540 O.2   344  PHE344     -0.2718
     38  CB        61.1840   51.0320   -8.9680 C.3   344  PHE344      0.0547
     39  CG        62.2500   51.1470   -7.8930 C.ar  344  PHE344     -0.0202
     40  CD1       62.8380   52.3830   -7.5920 C.ar  344  PHE344     -0.0042
     41  CD2       62.6540   50.0230   -7.1710 C.ar  344  PHE344     -0.0042
     42  CE1       63.8010   52.4920   -6.6000 C.ar  344  PHE344     -0.0003
     43  CE2       63.6240   50.1280   -6.1710 C.ar  344  PHE344     -0.0003
     44  CZ        64.1930   51.3640   -5.8890 C.ar  344  PHE344     -0.0000
     45  N         59.4310   53.5480   -9.6780 N.am  345  PHE345     -0.1976
     46  CA        59.3050   54.9890   -9.8230 C.3   345  PHE345      0.1639
     47  C         58.0460   55.5800   -9.1570 C.2   345  PHE345      0.2290
     48  O         58.0500   56.7270   -8.6800 O.2   345  PHE345     -0.2864
     49  CB        59.4380   55.3540  -11.3010 C.3   345  PHE345      0.0560
     50  CG        60.7400   54.8710  -11.9090 C.ar  345  PHE345     -0.0200
     51  CD1       61.9640   55.3530  -11.4350 C.ar  345  PHE345     -0.0042
     52  CD2       60.7480   53.9190  -12.9270 C.ar  345  PHE345     -0.0042
     53  CE1       63.1780   54.8990  -11.9620 C.ar  345  PHE345     -0.0003
     54  CE2       61.9580   53.4510  -13.4710 C.ar  345  PHE345     -0.0003
     55  CZ        63.1730   53.9440  -12.9860 C.ar  345  PHE345     -0.0000
     56  N         55.9390   39.1190   -7.0540 N.3   442  LEU442     -0.1245
     57  CA        56.8710   39.8330   -6.1760 C.3   442  LEU442      0.1561
     58  C         56.1140   41.0440   -5.6180 C.2   442  LEU442      0.2260
     59  O         55.7580   41.9640   -6.3630 O.2   442  LEU442     -0.2867
     60  CB        58.1030   40.2970   -6.9570 C.3   442  LEU442      0.0270
     61  CG        59.1580   40.9440   -6.0740 C.3   442  LEU442      0.0019
     62  CD1       59.7410   39.8560   -5.2070 C.3   442  LEU442      0.0001
     63  CD2       60.2370   41.6190   -6.9030 C.3   442  LEU442      0.0001
     64  N         56.5100   45.5290   -6.1510 N.3   445  LEU445     -0.1245
     65  CA        57.1570   45.8300   -7.4160 C.3   445  LEU445      0.1561
     66  C         56.8490   45.0040   -8.6530 C.2   445  LEU445      0.2260
     67  O         56.9110   45.5260   -9.7670 O.2   445  LEU445     -0.2867
     68  CB        58.6580   45.8350   -7.1810 C.3   445  LEU445      0.0270
     69  CG        59.0770   46.7870   -6.0680 C.3   445  LEU445      0.0019
     70  CD1       60.5620   46.6020   -5.7880 C.3   445  LEU445      0.0001
     71  CD2       58.7440   48.2350   -6.4520 C.3   445  LEU445      0.0001
     72  N         59.7690   44.4300  -11.8990 N.3   448  PHE448     -0.1227
     73  CA        60.2430   45.8190  -11.9450 C.3   448  PHE448      0.1736
     74  C         61.4290   46.1020  -12.8660 C.2   448  PHE448      0.2595
     75  O         62.1460   45.1860  -13.2870 O.2   448  PHE448     -0.2718
     76  CB        60.5850   46.3020  -10.5210 C.3   448  PHE448      0.0547
     77  CG        61.7520   45.5880   -9.9010 C.ar  448  PHE448     -0.0202
     78  CD1       61.6190   44.2870   -9.4260 C.ar  448  PHE448     -0.0042
     79  CD2       62.9970   46.1940   -9.8480 C.ar  448  PHE448     -0.0042
     80  CE1       62.7150   43.5990   -8.9110 C.ar  448  PHE448     -0.0003
     81  CE2       64.0940   45.5200   -9.3370 C.ar  448  PHE448     -0.0003
     82  CZ        63.9590   44.2230   -8.8700 C.ar  448  PHE448     -0.0000
     83  N         61.6680   47.3880  -13.1200 N.am  449  HIS449     -0.1961
     84  CA        62.7590   47.8050  -13.9860 C.3   449  HIS449      0.1787
     85  C         64.1330   47.3490  -13.5140 C.2   449  HIS449      0.2620
     86  O         64.4140   47.2770  -12.3040 O.2   449  HIS449     -0.2715
     87  CB        62.7530   49.3150  -14.1770 C.3   449  HIS449      0.0785
     88  CG        63.4600   50.0670  -13.0980 C.ar  449  HIS449      0.0821
     89  ND1       62.9940   50.1840  -11.8030 N.ar  449  HIS449     -0.2267
     90  CD2       64.6120   50.7820  -13.1460 C.ar  449  HIS449      0.1154
     91  CE1       63.8500   50.9530  -11.1270 C.ar  449  HIS449      0.1986
     92  NE2       64.8480   51.3420  -11.9000 N.ar  449  HIS449     -0.2212
     93  N         64.9480   46.9740  -14.4990 N.am  450  SER450     -0.1950
     94  CA        66.3310   46.5180  -14.3110 C.3   450  SER450      0.1924
     95  C         66.5280   45.1320  -13.6780 C.2   450  SER450      0.2314
     96  O         67.6560   44.7200  -13.4390 O.2   450  SER450     -0.2863
     97  CB        67.1770   47.5960  -13.5970 C.3   450  SER450      0.2116
     98  OG        67.1080   47.4480  -12.1970 O.3   450  SER450     -0.2180
@<TRIPOS>BOND
     1    12    11    2
     2    11    10    1
     3     9    10    1
     4    10    13    1
     5    13    14    1
     6     7     8    2
     7     7     6    1
     8     1     2    1
     9     6     5    1
    10     5     3   am
    11     3     2    1
    12     3     4    2
    13    93    94    1
    14    93    85   am
    15    94    95    1
    16    94    97    1
    17    87    84    1
    18    87    88    1
    19    84    85    1
    20    84    83    1
    21    95    96    2
    22    97    98    1
    23    85    86    2
    24    54    55   ar
    25    54    52   ar
    26    75    74    2
    27    90    88   ar
    28    90    92   ar
    29    83    74   am
    30    88    89   ar
    31    55    53   ar
    32    52    50   ar
    33    74    73    1
    34    53    51   ar
    35    73    72    1
    36    73    76    1
    37    50    51   ar
    38    50    49    1
    39    92    91   ar
    40    89    91   ar
    41    19    20    1
    42    19    16    1
    43    49    46    1
    44    22    20   ar
    45    22    24   ar
    46    20    21   ar
    47    24    25   ar
    48    21    23   ar
    49    76    77    1
    50    16    15    1
    51    16    17    1
    52    25    23   ar
    53    77    79   ar
    54    77    78   ar
    55    18    17    2
    56    79    81   ar
    57    46    45    1
    58    46    47    1
    59    67    66    2
    60    45    36   am
    61    17    26   am
    62    78    80   ar
    63    34    35    1
    64    81    82   ar
    65    47    48    2
    66    38    35    1
    67    38    39    1
    68    80    82   ar
    69    66    65    1
    70    36    35    1
    71    36    37    2
    72    26    27    1
    73    39    40   ar
    74    39    41   ar
    75    40    42   ar
    76    33    31    1
    77    65    68    1
    78    65    64    1
    79    27    28    1
    80    27    30    1
    81    68    69    1
    82    41    43   ar
    83    56    57    1
    84    31    30    1
    85    31    32    1
    86    60    57    1
    87    60    61    1
    88    63    61    1
    89    42    44   ar
    90    71    69    1
    91    28    29    2
    92    59    58    2
    93    57    58    1
    94    43    44   ar
    95    61    62    1
    96    69    70    1
