@<TRIPOS>MOLECULE
tmp/1lpnA02.pdb
 200 194 0 0 0
SMALL
GASTEIGER

@<TRIPOS>ATOM
      1  N         70.4690   53.8540  -15.6230 N.3   123  GLY123     -0.1210
      2  CA        70.6760   54.7430  -14.4830 C.3   123  GLY123      0.1956
      3  C         70.0550   56.1300  -14.5510 C.2   123  GLY123      0.2612
      4  O         70.5810   57.0860  -13.9780 O.2   123  GLY123     -0.2717
      5  N         68.9170   56.2300  -15.2320 N.am  124  GLY124     -0.1942
      6  CA        68.1880   57.4810  -15.3610 C.3   124  GLY124      0.2014
      7  C         68.9140   58.7020  -15.8820 C.2   124  GLY124      0.2638
      8  O         68.4780   59.8220  -15.6040 O.2   124  GLY124     -0.2714
      9  N         69.9650   58.4930  -16.6830 N.am  125  PHE125     -0.1973
     10  CA        70.8070   59.5630  -17.2390 C.3   125  PHE125      0.1639
     11  C         71.4290   60.4150  -16.1340 C.2   125  PHE125      0.2290
     12  O         71.8730   61.5140  -16.4140 O.2   125  PHE125     -0.2864
     13  CB        70.0030   60.4600  -18.2040 C.3   125  PHE125      0.0560
     14  CG        69.5440   59.7480  -19.4540 C.ar  125  PHE125     -0.0200
     15  CD1       70.4520   59.4540  -20.4780 C.ar  125  PHE125     -0.0042
     16  CD2       68.2230   59.3290  -19.5880 C.ar  125  PHE125     -0.0042
     17  CE1       70.0570   58.7420  -21.6280 C.ar  125  PHE125     -0.0003
     18  CE2       67.8020   58.6190  -20.7250 C.ar  125  PHE125     -0.0003
     19  CZ        68.7250   58.3210  -21.7530 C.ar  125  PHE125     -0.0000
     20  N         70.1680   48.9680  -21.2880 N.3   208  GLU208     -0.1231
     21  CA        68.9280   48.8120  -20.5340 C.3   208  GLU208      0.1699
     22  C         68.5090   50.1670  -19.9660 C.2   208  GLU208      0.2593
     23  O         69.3560   50.9930  -19.6000 O.2   208  GLU208     -0.2718
     24  CB        69.0980   47.7490  -19.4450 C.3   208  GLU208      0.0402
     25  CG        67.8800   47.5040  -18.5990 C.3   208  GLU208      0.1161
     26  CD        67.7760   48.4840  -17.4280 C.2   208  GLU208      0.3649
     27  OE1       68.7940   49.1110  -17.0560 O.co2 208  GLU208     -0.2457
     28  OE2       66.6720   48.6440  -16.8750 O.co2 208  GLU208     -0.2457
     29  N         67.2010   50.3950  -19.9340 N.am  209  SER209     -0.1938
     30  CA        66.6150   51.6370  -19.4600 C.3   209  SER209      0.2055
     31  C         67.2720   52.8550  -20.1370 C.2   209  SER209      0.2642
     32  O         67.1160   53.0390  -21.3490 O.2   209  SER209     -0.2714
     33  CB        66.6280   51.7110  -17.9250 C.3   209  SER209      0.2130
     34  OG        65.8260   52.8210  -17.4310 O.3   209  SER209     -0.2179
     35  N         68.0360   53.6630  -19.4060 N.am  210  ALA210     -0.1977
     36  CA        68.6340   54.8380  -20.0280 C.3   210  ALA210      0.1597
     37  C         69.6100   54.4240  -21.1170 C.2   210  ALA210      0.2287
     38  O         69.8210   55.1520  -22.1040 O.2   210  ALA210     -0.2864
     39  CB        69.3260   55.7100  -18.9940 C.3   210  ALA210      0.0319
     40  N         67.3780   53.7080  -24.2290 N.3   213  MET213     -0.1245
     41  CA        66.9240   54.9140  -24.9030 C.3   213  MET213      0.1570
     42  C         68.0960   55.5070  -25.6650 C.2   213  MET213      0.2261
     43  O         67.9110   56.0990  -26.7220 O.2   213  MET213     -0.2867
     44  CB        66.3690   55.9200  -23.8940 C.3   213  MET213      0.0387
     45  CG        65.3460   55.3090  -22.9700 C.3   213  MET213      0.0595
     46  SD        64.5180   56.4860  -21.9100 S.3   213  MET213     -0.1393
     47  CE        63.0210   55.5600  -21.4970 C.3   213  MET213      0.0692
     48  N         62.8560   58.9550  -26.3820 N.3   245  VAL245     -0.1231
     49  CA        62.7500   59.7980  -25.1860 C.3   245  VAL245      0.1678
     50  C         61.7000   60.8960  -25.5250 C.2   245  VAL245      0.2434
     51  O         61.7670   61.5200  -26.5890 O.2   245  VAL245     -0.2733
     52  CB        64.1100   60.4750  -24.8040 C.3   245  VAL245      0.0265
     53  CG1       63.9980   61.1080  -23.4530 C.3   245  VAL245      0.0020
     54  CG2       65.2600   59.4670  -24.8260 C.3   245  VAL245      0.0020
     55  N         60.6780   61.0820  -24.6620 N.am  246  PRO246     -0.2729
     56  CA        59.6340   62.0850  -24.8930 C.3   246  PRO246      0.1401
     57  C         60.0420   63.4190  -24.2770 C.2   246  PRO246      0.2269
     58  O         59.4600   63.8630  -23.2810 O.2   246  PRO246     -0.2865
     59  CB        58.4360   61.4680  -24.1700 C.3   246  PRO246      0.0296
     60  CG        59.0600   60.8850  -22.9780 C.3   246  PRO246      0.0237
     61  CD        60.3240   60.2300  -23.5080 C.3   246  PRO246      0.0939
     62  N         66.1900   61.4760   -9.9630 N.3   296  PHE296     -0.1241
     63  CA        65.0660   60.6930  -10.4870 C.3   296  PHE296      0.1605
     64  C         64.1490   59.9580   -9.4960 C.2   296  PHE296      0.2264
     65  O         63.0700   59.5150   -9.8650 O.2   296  PHE296     -0.2867
     66  CB        65.5280   59.7550  -11.6140 C.3   296  PHE296      0.0534
     67  CG        66.4140   58.6150  -11.1580 C.ar  296  PHE296     -0.0203
     68  CD1       65.8570   57.4060  -10.7310 C.ar  296  PHE296     -0.0042
     69  CD2       67.8000   58.7410  -11.1640 C.ar  296  PHE296     -0.0042
     70  CE1       66.6680   56.3560  -10.3180 C.ar  296  PHE296     -0.0003
     71  CE2       68.6180   57.6870  -10.7490 C.ar  296  PHE296     -0.0003
     72  CZ        68.0560   56.5030  -10.3280 C.ar  296  PHE296     -0.0000
     73  N         60.1770   60.7400  -12.9940 N.3   302  LEU302     -0.1231
     74  CA        60.6350   60.6000  -14.3630 C.3   302  LEU302      0.1693
     75  C         60.6480   61.8520  -15.2340 C.2   302  LEU302      0.2592
     76  O         61.0750   61.7920  -16.3910 O.2   302  LEU302     -0.2718
     77  CB        59.9350   59.4080  -15.0430 C.3   302  LEU302      0.0284
     78  CG        60.6900   58.0610  -15.1680 C.3   302  LEU302      0.0019
     79  CD1       61.7490   57.8790  -14.0960 C.3   302  LEU302      0.0001
     80  CD2       59.7260   56.8920  -15.2090 C.3   302  LEU302      0.0001
     81  N         60.1590   62.9730  -14.7010 N.am  303  ARG303     -0.1966
     82  CA        60.2100   64.2510  -15.4240 C.3   303  ARG303      0.1729
     83  C         61.6280   64.6800  -15.0550 C.2   303  ARG303      0.2616
     84  O         61.8370   65.4850  -14.1380 O.2   303  ARG303     -0.2715
     85  CB        59.2210   65.2610  -14.8520 C.3   303  ARG303      0.0348
     86  CG        59.2750   66.5750  -15.5750 C.3   303  ARG303      0.0492
     87  CD        58.9600   67.7390  -14.6790 C.3   303  ARG303      0.2205
     88  NE        58.7880   68.9640  -15.4630 N.pl3 303  ARG303     -0.0865
     89  CZ        58.2980   70.1090  -14.9860 C.cat 303  ARG303      0.5346
     90  NH1       57.9320   70.1950  -13.7100 N.pl3 303  ARG303      0.1354
     91  NH2       58.1520   71.1670  -15.7860 N.pl3 303  ARG303      0.1354
     92  N         62.5860   64.0520  -15.7350 N.am  304  LEU304     -0.1977
     93  CA        64.0130   64.2140  -15.5080 C.3   304  LEU304      0.1596
     94  C         64.6160   65.5700  -15.7130 C.2   304  LEU304      0.2287
     95  O         64.2980   66.2770  -16.6660 O.2   304  LEU304     -0.2864
     96  CB        64.8010   63.1920  -16.3440 C.3   304  LEU304      0.0297
     97  CG        64.5560   61.6970  -16.1580 C.3   304  LEU304      0.0022
     98  CD1       65.4750   60.9140  -17.0960 C.3   304  LEU304      0.0001
     99  CD2       64.8360   61.3020  -14.7270 C.3   304  LEU304      0.0001
    100  N         68.5120   64.6480  -19.4330 N.3   307  LEU307     -0.1245
    101  CA        68.1600   63.5510  -20.3390 C.3   307  LEU307      0.1561
    102  C         68.3970   64.0170  -21.7820 C.2   307  LEU307      0.2260
    103  O         68.6760   65.1930  -22.0040 O.2   307  LEU307     -0.2867
    104  CB        66.6830   63.1190  -20.1350 C.3   307  LEU307      0.0270
    105  CG        65.4530   63.9150  -20.6420 C.3   307  LEU307      0.0019
    106  CD1       64.1870   63.0980  -20.4100 C.3   307  LEU307      0.0001
    107  CD2       65.3210   65.2610  -19.9510 C.3   307  LEU307      0.0001
    108  N         59.4310   53.5480   -9.6780 N.3   345  PHE345     -0.1241
    109  CA        59.3050   54.9890   -9.8230 C.3   345  PHE345      0.1605
    110  C         58.0460   55.5800   -9.1570 C.2   345  PHE345      0.2264
    111  O         58.0500   56.7270   -8.6800 O.2   345  PHE345     -0.2867
    112  CB        59.4380   55.3540  -11.3010 C.3   345  PHE345      0.0534
    113  CG        60.7400   54.8710  -11.9090 C.ar  345  PHE345     -0.0203
    114  CD1       61.9640   55.3530  -11.4350 C.ar  345  PHE345     -0.0042
    115  CD2       60.7480   53.9190  -12.9270 C.ar  345  PHE345     -0.0042
    116  CE1       63.1780   54.8990  -11.9620 C.ar  345  PHE345     -0.0003
    117  CE2       61.9580   53.4510  -13.4710 C.ar  345  PHE345     -0.0003
    118  CZ        63.1730   53.9440  -12.9860 C.ar  345  PHE345     -0.0000
    119  N         53.4810   67.2270  -14.0520 N.3   365  SER365     -0.1202
    120  CA        54.4100   66.4110  -14.8020 C.3   365  SER365      0.2020
    121  C         54.4080   66.6800  -16.2930 C.2   365  SER365      0.2618
    122  O         55.4600   66.6220  -16.9470 O.2   365  SER365     -0.2717
    123  CB        54.1190   64.9350  -14.5360 C.3   365  SER365      0.2103
    124  OG        54.2260   64.6370  -13.1520 O.3   365  SER365     -0.2182
    125  N         53.2230   66.9060  -16.8470 N.am  366  PHE366     -0.1975
    126  CA        53.1060   67.1540  -18.2720 C.3   366  PHE366      0.1639
    127  C         52.5450   68.5470  -18.4900 C.2   366  PHE366      0.2290
    128  O         51.3430   68.7230  -18.6250 O.2   366  PHE366     -0.2864
    129  CB        52.1970   66.1070  -18.9140 C.3   366  PHE366      0.0560
    130  CG        52.4840   64.7040  -18.4720 C.ar  366  PHE366     -0.0200
    131  CD1       53.6690   64.0690  -18.8350 C.ar  366  PHE366     -0.0042
    132  CD2       51.5560   64.0080  -17.7110 C.ar  366  PHE366     -0.0042
    133  CE1       53.9190   62.7560  -18.4450 C.ar  366  PHE366     -0.0003
    134  CE2       51.7840   62.7000  -17.3140 C.ar  366  PHE366     -0.0003
    135  CZ        52.9630   62.0660  -17.6790 C.ar  366  PHE366     -0.0000
    136  N         53.4800   55.9730  -15.7320 N.3   410  LEU410     -0.1245
    137  CA        54.9310   56.1430  -15.8310 C.3   410  LEU410      0.1561
    138  C         55.6010   55.0400  -16.6300 C.2   410  LEU410      0.2260
    139  O         56.4610   55.3190  -17.4570 O.2   410  LEU410     -0.2867
    140  CB        55.5300   56.1510  -14.4420 C.3   410  LEU410      0.0270
    141  CG        55.8730   57.4720  -13.7910 C.3   410  LEU410      0.0019
    142  CD1       55.0460   58.6200  -14.3250 C.3   410  LEU410      0.0001
    143  CD2       55.6960   57.2650  -12.3050 C.3   410  LEU410      0.0001
    144  N         54.1770   55.2270  -20.5750 N.3   413  LEU413     -0.1231
    145  CA        54.7030   56.3720  -21.3060 C.3   413  LEU413      0.1693
    146  C         56.2080   56.2620  -21.4290 C.2   413  LEU413      0.2593
    147  O         56.7710   56.3730  -22.5110 O.2   413  LEU413     -0.2718
    148  CB        54.3610   57.6650  -20.5700 C.3   413  LEU413      0.0284
    149  CG        54.9110   58.9420  -21.2110 C.3   413  LEU413      0.0019
    150  CD1       54.4780   59.0250  -22.6880 C.3   413  LEU413      0.0001
    151  CD2       54.4260   60.1550  -20.4450 C.3   413  LEU413      0.0001
    152  N         56.8600   55.9830  -20.3110 N.am  414  GLY414     -0.1942
    153  CA        58.3000   55.8980  -20.3260 C.3   414  GLY414      0.2014
    154  C         58.8960   54.7100  -21.0500 C.2   414  GLY414      0.2638
    155  O         60.0070   54.8170  -21.5810 O.2   414  GLY414     -0.2714
    156  N         58.2010   53.5720  -21.0680 N.am  415  PHE415     -0.1973
    157  CA        58.7760   52.3950  -21.7140 C.3   415  PHE415      0.1639
    158  C         57.8780   51.5010  -22.6080 C.2   415  PHE415      0.2290
    159  O         58.0230   51.4650  -23.8420 O.2   415  PHE415     -0.2864
    160  CB        59.4710   51.4940  -20.6600 C.3   415  PHE415      0.0560
    161  CG        60.2220   52.2390  -19.5710 C.ar  415  PHE415     -0.0200
    162  CD1       59.5340   52.9230  -18.5670 C.ar  415  PHE415     -0.0042
    163  CD2       61.6060   52.1890  -19.5070 C.ar  415  PHE415     -0.0042
    164  CE1       60.2040   53.5520  -17.5010 C.ar  415  PHE415     -0.0003
    165  CE2       62.2980   52.8110  -18.4480 C.ar  415  PHE415     -0.0003
    166  CZ        61.5890   53.4960  -17.4390 C.ar  415  PHE415     -0.0000
    167  N         61.6680   47.3880  -13.1200 N.3   449  HIS449     -0.1226
    168  CA        62.7590   47.8050  -13.9860 C.3   449  HIS449      0.1752
    169  C         64.1330   47.3490  -13.5140 C.2   449  HIS449      0.2596
    170  O         64.4140   47.2770  -12.3040 O.2   449  HIS449     -0.2718
    171  CB        62.7530   49.3150  -14.1770 C.3   449  HIS449      0.0759
    172  CG        63.4600   50.0670  -13.0980 C.ar  449  HIS449      0.0818
    173  ND1       62.9940   50.1840  -11.8030 N.ar  449  HIS449     -0.2268
    174  CD2       64.6120   50.7820  -13.1460 C.ar  449  HIS449      0.1154
    175  CE1       63.8500   50.9530  -11.1270 C.ar  449  HIS449      0.1986
    176  NE2       64.8480   51.3420  -11.9000 N.ar  449  HIS449     -0.2212
    177  N         64.9480   46.9740  -14.4990 N.am  450  SER450     -0.1952
    178  CA        66.3310   46.5180  -14.3110 C.3   450  SER450      0.1924
    179  C         66.5280   45.1320  -13.6780 C.2   450  SER450      0.2314
    180  O         67.6560   44.7200  -13.4390 O.2   450  SER450     -0.2863
    181  CB        67.1770   47.5960  -13.5970 C.3   450  SER450      0.2116
    182  OG        67.1080   47.4480  -12.1970 O.3   450  SER450     -0.2180
    183  N         52.6200   65.0550  -23.9310 N.3   532  PHE532     -0.1241
    184  CA        53.1550   64.4040  -22.7490 C.3   532  PHE532      0.1605
    185  C         54.6670   64.4090  -22.6310 C.2   532  PHE532      0.2264
    186  O         55.2340   63.5770  -21.9250 O.2   532  PHE532     -0.2867
    187  CB        52.5810   62.9970  -22.6420 C.3   532  PHE532      0.0534
    188  CG        51.1010   62.9840  -22.3830 C.ar  532  PHE532     -0.0203
    189  CD1       50.6110   63.1710  -21.0960 C.ar  532  PHE532     -0.0042
    190  CD2       50.1910   62.8430  -23.4360 C.ar  532  PHE532     -0.0042
    191  CE1       49.2350   63.2250  -20.8480 C.ar  532  PHE532     -0.0003
    192  CE2       48.8090   62.8950  -23.1970 C.ar  532  PHE532     -0.0003
    193  CZ        48.3310   63.0900  -21.8930 C.ar  532  PHE532     -0.0000
    194  N         58.4330   66.0640  -21.6260 N.3   534  VAL534     -0.1245
    195  CA        59.0310   66.7330  -20.4870 C.3   534  VAL534      0.1561
    196  C         60.1750   67.6230  -20.9690 C.2   534  VAL534      0.2260
    197  O         60.5860   68.5070  -20.2080 O.2   534  VAL534     -0.2867
    198  CB        59.5600   65.7130  -19.4350 C.3   534  VAL534      0.0252
    199  CG1       58.4270   64.8190  -18.9620 C.3   534  VAL534      0.0019
    200  CG2       60.6770   64.8740  -20.0160 C.3   534  VAL534      0.0019
@<TRIPOS>BOND
     1    43    42    2
     2    51    50    2
     3    48    49    1
     4    42    41    1
     5    50    49    1
     6    50    55   am
     7    49    52    1
     8    41    40    1
     9    41    44    1
    10    56    55    1
    11    56    57    1
    12    56    59    1
    13    54    52    1
    14    52    53    1
    15    55    61    1
    16    57    58    2
    17    59    60    1
    18   183   184    1
    19    44    45    1
    20   159   158    2
    21    61    60    1
    22   190   192   ar
    23   190   188   ar
    24   192   193   ar
    25    45    46    1
    26   184   187    1
    27   184   185    1
    28   150   149    1
    29   187   188    1
    30   185   186    2
    31   158   157    1
    32   147   146    2
    33   188   189   ar
    34    38    37    2
    35   103   102    2
    36    46    47    1
    37   193   191   ar
    38   102   101    1
    39    19    17   ar
    40    19    18   ar
    41   157   156    1
    42   157   160    1
    43    17    15   ar
    44   194   195    1
    45   155   154    2
    46   146   145    1
    47   146   152   am
    48    32    31    2
    49   145   144    1
    50   145   148    1
    51    20    21    1
    52   149   148    1
    53   149   151    1
    54    37    36    1
    55   189   191   ar
    56   156   154   am
    57   154   153    1
    58   196   195    1
    59   196   197    2
    60    18    16   ar
    61   160   161    1
    62   105   106    1
    63   105   104    1
    64   105   107    1
    65    21    22    1
    66    21    24    1
    67   195   198    1
    68    15    14   ar
    69   101   104    1
    70   101   100    1
    71   153   152    1
    72    31    30    1
    73    31    35   am
    74    36    35    1
    75    36    39    1
    76   200   198    1
    77    22    29   am
    78    22    23    2
    79    29    30    1
    80    16    14   ar
    81   161   163   ar
    82   161   162   ar
    83   163   165   ar
    84    30    33    1
    85    14    13    1
    86    24    25    1
    87   198   199    1
    88   129   130    1
    89   129   126    1
    90   131   130   ar
    91   131   133   ar
    92   128   127    2
    93    25    26    1
    94   162   164   ar
    95   127   126    1
    96   130   132   ar
    97   165   166   ar
    98   133   135   ar
    99   126   125    1
   100    13    10    1
   101    33    34    1
   102   132   134   ar
   103   135   134   ar
   104   164   166   ar
   105   139   138    2
   106    26    27   ar
   107    26    28   ar
   108    10     9    1
   109    10    11    1
   110    98    97    1
   111   122   121    2
   112   125   121   am
   113     9     7   am
   114    95    94    2
   115   138   137    1
   116    12    11    2
   117    76    75    2
   118    96    97    1
   119    96    93    1
   120   121   120    1
   121    97    99    1
   122     7     8    2
   123     7     6    1
   124   137   136    1
   125   137   140    1
   126    91    89    1
   127    92    93    1
   128    92    83   am
   129    94    93    1
   130     1     2    1
   131    86    85    1
   132    86    87    1
   133    88    89    2
   134    88    87    1
   135    82    83    1
   136    82    85    1
   137    82    81    1
   138     6     5    1
   139    75    81   am
   140    75    74    1
   141     5     3   am
   142    80    78    1
   143    78    77    1
   144    78    79    1
   145    83    84    2
   146    77    74    1
   147    89    90    1
   148   120   123    1
   149   120   119    1
   150     3     2    1
   151     3     4    2
   152   123   124    1
   153   177   178    1
   154   177   169   am
   155   140   141    1
   156    74    73    1
   157   142   141    1
   158   178   179    1
   159   178   181    1
   160   171   168    1
   161   171   172    1
   162   168   169    1
   163   168   167    1
   164   141   143    1
   165   179   180    2
   166   181   182    1
   167   169   170    2
   168   117   118   ar
   169   117   115   ar
   170   174   172   ar
   171   174   176   ar
   172   172   173   ar
   173   118   116   ar
   174   115   113   ar
   175   116   114   ar
   176   113   114   ar
   177   113   112    1
   178   176   175   ar
   179   173   175   ar
   180    66    67    1
   181    66    63    1
   182   112   109    1
   183    69    67   ar
   184    69    71   ar
   185    67    68   ar
   186    71    72   ar
   187    68    70   ar
   188    63    62    1
   189    63    64    1
   190    72    70   ar
   191    65    64    2
   192   109   108    1
   193   109   110    1
   194   110   111    2
