@<TRIPOS>MOLECULE
tmp/1lppA01.pdb
 86 83 0 0 0
SMALL
GASTEIGER

@<TRIPOS>ATOM
      1  N         67.5450   67.2300   -4.6560 N.3    68  THR68      -0.1203
      2  CA        66.4480   68.1400   -4.9190 C.3    68  THR68       0.1994
      3  C         66.7810   69.4460   -4.2200 C.2    68  THR68       0.2618
      4  O         67.6780   69.4990   -3.3840 O.2    68  THR68      -0.2717
      5  CB        65.1030   67.5790   -4.3760 C.3    68  THR68       0.1784
      6  OG1       64.0610   68.5490   -4.5630 O.3    68  THR68      -0.2211
      7  CG2       65.2140   67.2080   -2.8890 C.3    68  THR68       0.0376
      8  N         66.0850   70.5110   -4.5850 N.am   69  TYR69      -0.1961
      9  CA        66.3350   71.8000   -3.9560 C.3    69  TYR69       0.1771
     10  C         65.7010   71.8470   -2.5560 C.2    69  TYR69       0.2619
     11  O         65.9460   72.7650   -1.7700 O.2    69  TYR69      -0.2715
     12  CB        65.8230   72.9220   -4.8530 C.3    69  TYR69       0.0574
     13  CG        64.4150   72.7040   -5.3190 C.ar   69  TYR69      -0.0198
     14  CD1       63.3380   73.0940   -4.5280 C.ar   69  TYR69      -0.0009
     15  CD2       64.1500   72.1220   -6.5580 C.ar   69  TYR69      -0.0009
     16  CE1       62.0310   72.9210   -4.9600 C.ar   69  TYR69       0.0417
     17  CE2       62.8410   71.9370   -6.9990 C.ar   69  TYR69       0.0417
     18  CZ        61.7830   72.3460   -6.1930 C.ar   69  TYR69       0.1957
     19  OH        60.4720   72.2170   -6.6120 O.3    69  TYR69      -0.2866
     20  N         64.8560   70.8670   -2.2610 N.am   70  GLU70      -0.1977
     21  CA        64.2220   70.7970   -0.9490 C.3    70  GLU70       0.1602
     22  C         65.1800   70.0510   -0.0250 C.2    70  GLU70       0.2287
     23  O         66.1250   69.4000   -0.4780 O.2    70  GLU70      -0.2864
     24  CB        62.9010   70.0130   -1.0140 C.3    70  GLU70       0.0415
     25  CG        61.8070   70.6040   -1.9020 C.3    70  GLU70       0.1163
     26  CD        60.5090   69.7700   -1.9030 C.2    70  GLU70       0.3649
     27  OE1       59.8560   69.6510   -0.8390 O.co2  70  GLU70      -0.2457
     28  OE2       60.1320   69.2450   -2.9730 O.co2  70  GLU70      -0.2457
     29  N         66.6410   68.3210   -8.7120 N.3   294  PRO294     -0.2116
     30  CA        65.9770   67.0170   -8.5840 C.3   294  PRO294      0.1372
     31  C         66.6520   65.8070   -9.2010 C.2   294  PRO294      0.2244
     32  O         67.0500   65.8330  -10.3650 O.2   294  PRO294     -0.2868
     33  CB        64.6150   67.2640   -9.2240 C.3   294  PRO294      0.0268
     34  CG        64.3800   68.7160   -8.9230 C.3   294  PRO294      0.0207
     35  CD        65.7140   69.3180   -9.2650 C.3   294  PRO294      0.0892
     36  N         60.5870   63.6610   -5.7830 N.3   299  TYR299     -0.1227
     37  CA        59.1840   63.8320   -6.1780 C.3   299  TYR299      0.1736
     38  C         58.9520   63.9990   -7.6850 C.2   299  TYR299      0.2596
     39  O         58.0130   63.4250   -8.2330 O.2   299  TYR299     -0.2718
     40  CB        58.5760   65.0160   -5.4440 C.3   299  TYR299      0.0548
     41  CG        57.0740   65.1360   -5.6040 C.ar  299  TYR299     -0.0200
     42  CD1       56.2170   64.1430   -5.1070 C.ar  299  TYR299     -0.0009
     43  CD2       56.5030   66.2610   -6.2100 C.ar  299  TYR299     -0.0009
     44  CE1       54.8370   64.2680   -5.1980 C.ar  299  TYR299      0.0417
     45  CE2       55.1210   66.3970   -6.3050 C.ar  299  TYR299      0.0417
     46  CZ        54.2960   65.4000   -5.7920 C.ar  299  TYR299      0.1957
     47  OH        52.9310   65.5580   -5.8270 O.3   299  TYR299     -0.2866
     48  N         59.7830   64.8010   -8.3490 N.am  300  SER300     -0.1952
     49  CA        59.6650   65.0330   -9.7960 C.3   300  SER300      0.1924
     50  C         59.6930   63.7280  -10.5960 C.2   300  SER300      0.2314
     51  O         59.2280   63.6670  -11.7480 O.2   300  SER300     -0.2863
     52  CB        60.7790   65.9640  -10.2600 C.3   300  SER300      0.2116
     53  OG        60.6540   67.2010   -9.5990 O.3   300  SER300     -0.2180
     54  N         52.7870   60.4560   -1.5200 N.3   351  ASN351     -0.1225
     55  CA        52.0400   61.4390   -0.7350 C.3   351  ASN351      0.1785
     56  C         50.8480   61.9160   -1.5660 C.2   351  ASN351      0.2597
     57  O         50.0930   62.7860   -1.1590 O.2   351  ASN351     -0.2718
     58  CB        52.9270   62.6100   -0.2740 C.3   351  ASN351      0.1169
     59  CG        53.4590   63.4640   -1.4210 C.2   351  ASN351      0.2627
     60  OD1       53.6820   62.9900   -2.5420 O.2   351  ASN351     -0.2716
     61  ND2       53.6830   64.7390   -1.1150 N.am  351  ASN351     -0.0877
     62  N         50.7090   61.3420   -2.7500 N.am  352  VAL352     -0.1980
     63  CA        49.6040   61.6480   -3.6380 C.3   352  VAL352      0.1595
     64  C         48.6240   60.4960   -3.3490 C.2   352  VAL352      0.2287
     65  O         48.9420   59.3370   -3.5800 O.2   352  VAL352     -0.2864
     66  CB        50.0890   61.6740   -5.0990 C.3   352  VAL352      0.0276
     67  CG1       48.9230   61.8230   -6.0430 C.3   352  VAL352      0.0022
     68  CG2       51.0640   62.8360   -5.2880 C.3   352  VAL352      0.0022
     69  N         44.6290   65.0510   -6.0520 N.3   357  GLN357     -0.1245
     70  CA        46.0750   65.1930   -5.9720 C.3   357  GLN357      0.1566
     71  C         46.7540   64.5580   -7.2090 C.2   357  GLN357      0.2260
     72  O         47.7460   65.1010   -7.7050 O.2   357  GLN357     -0.2867
     73  CB        46.6080   64.5940   -4.6750 C.3   357  GLN357      0.0367
     74  CG        46.1840   65.3740   -3.4420 C.3   357  GLN357      0.0905
     75  CD        46.3170   64.5760   -2.1550 C.2   357  GLN357      0.2608
     76  OE1       46.5790   63.3760   -2.1740 O.2   357  GLN357     -0.2717
     77  NE2       46.1040   65.2330   -1.0320 N.am  357  GLN357     -0.0878
     78  N         51.2320   69.1610  -13.2410 N.3   364  GLN364     -0.1245
     79  CA        52.5360   69.6890  -12.8920 C.3   364  GLN364      0.1566
     80  C         53.6400   69.0160  -13.7120 C.2   364  GLN364      0.2260
     81  O         54.5760   69.6730  -14.1570 O.2   364  GLN364     -0.2867
     82  CB        52.7670   69.4780  -11.3970 C.3   364  GLN364      0.0367
     83  CG        54.2020   69.6310  -10.9510 C.3   364  GLN364      0.0905
     84  CD        54.3930   69.4090   -9.4500 C.2   364  GLN364      0.2608
     85  OE1       53.4370   69.4900   -8.6620 O.2   364  GLN364     -0.2717
     86  NE2       55.6350   69.1360   -9.0480 N.am  364  GLN364     -0.0878
@<TRIPOS>BOND
     1    81    80    2
     2    80    79    1
     3    78    79    1
     4    79    82    1
     5    51    50    2
     6    82    83    1
     7    83    84    1
     8    50    49    1
     9    32    31    2
    10    52    49    1
    11    52    53    1
    12    49    48    1
    13    84    86   am
    14    84    85    2
    15    35    34    1
    16    35    29    1
    17    33    34    1
    18    33    30    1
    19    31    30    1
    20    29    30    1
    21    48    38   am
    22    39    38    2
    23    72    71    2
    24    38    37    1
    25    71    70    1
    26    17    15   ar
    27    17    18   ar
    28    19    18    1
    29    15    13   ar
    30    45    43   ar
    31    45    46   ar
    32    43    41   ar
    33    18    16   ar
    34    37    36    1
    35    37    40    1
    36    69    70    1
    37    67    66    1
    38    70    73    1
    39    47    46    1
    40    46    44   ar
    41    41    40    1
    42    41    42   ar
    43    13    12    1
    44    13    14   ar
    45    68    66    1
    46    44    42   ar
    47    66    63    1
    48    16    14   ar
    49     2     1    1
    50     2     5    1
    51     2     3    1
    52    12     9    1
    53    73    74    1
    54     8     3   am
    55     8     9    1
    56     6     5    1
    57     5     7    1
    58     3     4    2
    59     9    10    1
    60    63    64    1
    61    63    62    1
    62    65    64    2
    63    74    75    1
    64    28    26   ar
    65    62    56   am
    66    10    20   am
    67    10    11    2
    68    60    59    2
    69    20    21    1
    70    76    75    2
    71    75    77   am
    72    26    25    1
    73    26    27   ar
    74    25    24    1
    75    56    57    2
    76    56    55    1
    77    54    55    1
    78    59    61   am
    79    59    58    1
    80    24    21    1
    81    21    22    1
    82    55    58    1
    83    23    22    2
