@<TRIPOS>MOLECULE
tmp/1lppA03.pdb
 90 89 0 0 0
SMALL
GASTEIGER

@<TRIPOS>ATOM
      1  N         70.6130   54.0360  -15.6780 N.3   123  GLY123     -0.1210
      2  CA        70.8340   54.8430  -14.4890 C.3   123  GLY123      0.1956
      3  C         70.1970   56.2230  -14.5650 C.2   123  GLY123      0.2612
      4  O         70.6960   57.1720  -13.9590 O.2   123  GLY123     -0.2717
      5  N         69.1020   56.3300  -15.3210 N.am  124  GLY124     -0.1956
      6  CA        68.3570   57.5740  -15.4650 C.3   124  GLY124      0.1869
      7  C         69.1080   58.8120  -15.9030 C.2   124  GLY124      0.2309
      8  O         68.6940   59.9240  -15.5490 O.2   124  GLY124     -0.2863
      9  N         67.4110   50.4880  -19.9050 N.3   209  SER209     -0.1217
     10  CA        66.7870   51.7370  -19.4550 C.3   209  SER209      0.1889
     11  C         67.4330   52.9590  -20.1410 C.2   209  SER209      0.2288
     12  O         67.3190   53.1100  -21.3680 O.2   209  SER209     -0.2866
     13  CB        66.7890   51.8220  -17.9190 C.3   209  SER209      0.2089
     14  OG        65.9530   52.8570  -17.3960 O.3   209  SER209     -0.2183
     15  N         66.2820   61.5300  -10.0120 N.3   296  PHE296     -0.1227
     16  CA        65.1770   60.7040  -10.5180 C.3   296  PHE296      0.1736
     17  C         64.2650   60.0230   -9.4970 C.2   296  PHE296      0.2595
     18  O         63.1490   59.6160   -9.8440 O.2   296  PHE296     -0.2718
     19  CB        65.6440   59.7140  -11.6110 C.3   296  PHE296      0.0547
     20  CG        66.5430   58.5880  -11.1190 C.ar  296  PHE296     -0.0202
     21  CD1       65.9970   57.3940  -10.6390 C.ar  296  PHE296     -0.0042
     22  CD2       67.9310   58.7100  -11.1580 C.ar  296  PHE296     -0.0042
     23  CE1       66.8140   56.3490  -10.2060 C.ar  296  PHE296     -0.0003
     24  CE2       68.7510   57.6690  -10.7270 C.ar  296  PHE296     -0.0003
     25  CZ        68.1970   56.4900  -10.2510 C.ar  296  PHE296     -0.0000
     26  N         64.7280   59.8990   -8.2510 N.am  297  LEU297     -0.1980
     27  CA        63.9240   59.2960   -7.1940 C.3   297  LEU297      0.1596
     28  C         63.2020   60.3340   -6.3680 C.2   297  LEU297      0.2287
     29  O         62.3650   59.9930   -5.5410 O.2   297  LEU297     -0.2864
     30  CB        64.7500   58.3820   -6.2890 C.3   297  LEU297      0.0297
     31  CG        65.2100   57.0770   -6.9450 C.3   297  LEU297      0.0022
     32  CD1       65.9310   56.2250   -5.9280 C.3   297  LEU297      0.0001
     33  CD2       64.0130   56.3140   -7.5160 C.3   297  LEU297      0.0001
     34  N         58.8650   50.9820   -9.2090 N.3   344  PHE344     -0.1227
     35  CA        59.9320   51.5580   -8.3900 C.3   344  PHE344      0.1736
     36  C         59.8590   53.0880   -8.3760 C.2   344  PHE344      0.2595
     37  O         60.0020   53.7330   -7.3240 O.2   344  PHE344     -0.2718
     38  CB        61.3150   51.0850   -8.8720 C.3   344  PHE344      0.0547
     39  CG        62.3850   51.2200   -7.8280 C.ar  344  PHE344     -0.0202
     40  CD1       63.1000   52.4090   -7.6870 C.ar  344  PHE344     -0.0042
     41  CD2       62.6290   50.1840   -6.9360 C.ar  344  PHE344     -0.0042
     42  CE1       64.0330   52.5650   -6.6790 C.ar  344  PHE344     -0.0003
     43  CE2       63.5640   50.3290   -5.9170 C.ar  344  PHE344     -0.0003
     44  CZ        64.2640   51.5260   -5.7880 C.ar  344  PHE344     -0.0000
     45  N         59.6060   53.6490   -9.5520 N.am  345  PHE345     -0.1976
     46  CA        59.5040   55.0810   -9.7110 C.3   345  PHE345      0.1639
     47  C         58.2170   55.6290   -9.0840 C.2   345  PHE345      0.2290
     48  O         58.1790   56.7690   -8.6200 O.2   345  PHE345     -0.2864
     49  CB        59.6060   55.4190  -11.2060 C.3   345  PHE345      0.0560
     50  CG        60.8330   54.8510  -11.8620 C.ar  345  PHE345     -0.0200
     51  CD1       62.1040   55.2470  -11.4490 C.ar  345  PHE345     -0.0042
     52  CD2       60.7240   53.9210  -12.8870 C.ar  345  PHE345     -0.0042
     53  CE1       63.2480   54.7230  -12.0470 C.ar  345  PHE345     -0.0003
     54  CE2       61.8690   53.3850  -13.5000 C.ar  345  PHE345     -0.0003
     55  CZ        63.1280   53.7870  -13.0840 C.ar  345  PHE345     -0.0000
     56  N         56.6910   45.5360   -6.0860 N.3   445  LEU445     -0.1245
     57  CA        57.3170   45.8350   -7.3670 C.3   445  LEU445      0.1561
     58  C         56.9810   45.0270   -8.6140 C.2   445  LEU445      0.2260
     59  O         57.0500   45.5670   -9.7220 O.2   445  LEU445     -0.2867
     60  CB        58.8310   45.8780   -7.1830 C.3   445  LEU445      0.0270
     61  CG        59.3050   46.8620   -6.1110 C.3   445  LEU445      0.0019
     62  CD1       60.8330   46.8230   -6.0170 C.3   445  LEU445      0.0001
     63  CD2       58.7880   48.2850   -6.4250 C.3   445  LEU445      0.0001
     64  N         59.8920   44.4040  -11.9770 N.3   448  PHE448     -0.1227
     65  CA        60.3790   45.7910  -12.0260 C.3   448  PHE448      0.1736
     66  C         61.5920   46.0840  -12.9000 C.2   448  PHE448      0.2595
     67  O         62.3160   45.1730  -13.3260 O.2   448  PHE448     -0.2718
     68  CB        60.6040   46.3230  -10.5980 C.3   448  PHE448      0.0547
     69  CG        61.7660   45.7060   -9.9120 C.ar  448  PHE448     -0.0202
     70  CD1       61.6700   44.4390   -9.3550 C.ar  448  PHE448     -0.0042
     71  CD2       62.9880   46.3660   -9.8830 C.ar  448  PHE448     -0.0042
     72  CE1       62.7780   43.8260   -8.7810 C.ar  448  PHE448     -0.0003
     73  CE2       64.1100   45.7640   -9.3110 C.ar  448  PHE448     -0.0003
     74  CZ        64.0040   44.4920   -8.7630 C.ar  448  PHE448     -0.0000
     75  N         61.8330   47.3730  -13.1210 N.am  449  HIS449     -0.1961
     76  CA        62.9190   47.8200  -13.9840 C.3   449  HIS449      0.1787
     77  C         64.2860   47.3870  -13.4720 C.2   449  HIS449      0.2620
     78  O         64.5340   47.4050  -12.2560 O.2   449  HIS449     -0.2715
     79  CB        62.8650   49.3390  -14.1620 C.3   449  HIS449      0.0785
     80  CG        63.5710   50.1050  -13.0880 C.ar  449  HIS449      0.0821
     81  ND1       63.0820   50.3030  -11.8130 N.ar  449  HIS449     -0.2267
     82  CD2       64.7820   50.7250  -13.1220 C.ar  449  HIS449      0.1154
     83  CE1       63.9860   51.0140  -11.1290 C.ar  449  HIS449      0.1986
     84  NE2       65.0310   51.2940  -11.8870 N.ar  449  HIS449     -0.2212
     85  N         65.1490   46.9650  -14.4020 N.am  450  SER450     -0.1950
     86  CA        66.5170   46.5230  -14.0950 C.3   450  SER450      0.1924
     87  C         66.6950   45.0970  -13.5900 C.2   450  SER450      0.2314
     88  O         67.8290   44.6440  -13.4730 O.2   450  SER450     -0.2863
     89  CB        67.2000   47.4970  -13.1250 C.3   450  SER450      0.2116
     90  OG        67.3670   48.7410  -13.7730 O.3   450  SER450     -0.2180
@<TRIPOS>BOND
     1    12    11    2
     2    11    10    1
     3     9    10    1
     4    10    13    1
     5    13    14    1
     6     7     8    2
     7     7     6    1
     8     1     2    1
     9     6     5    1
    10     5     3   am
    11     3     2    1
    12     3     4    2
    13    85    86    1
    14    85    77   am
    15    79    76    1
    16    79    80    1
    17    86    87    1
    18    86    89    1
    19    76    77    1
    20    76    75    1
    21    90    89    1
    22    87    88    2
    23    54    55   ar
    24    54    52   ar
    25    77    78    2
    26    67    66    2
    27    82    80   ar
    28    82    84   ar
    29    75    66   am
    30    80    81   ar
    31    55    53   ar
    32    66    65    1
    33    52    50   ar
    34    53    51   ar
    35    65    64    1
    36    65    68    1
    37    84    83   ar
    38    50    51   ar
    39    50    49    1
    40    81    83   ar
    41    19    20    1
    42    19    16    1
    43    49    46    1
    44    22    20   ar
    45    22    24   ar
    46    20    21   ar
    47    24    25   ar
    48    21    23   ar
    49    68    69    1
    50    16    15    1
    51    16    17    1
    52    25    23   ar
    53    69    71   ar
    54    69    70   ar
    55    71    73   ar
    56    18    17    2
    57    59    58    2
    58    46    45    1
    59    46    47    1
    60    45    36   am
    61    17    26   am
    62    70    72   ar
    63    73    74   ar
    64    34    35    1
    65    47    48    2
    66    38    35    1
    67    38    39    1
    68    72    74   ar
    69    58    57    1
    70    35    36    1
    71    36    37    2
    72    26    27    1
    73    39    40   ar
    74    39    41   ar
    75    40    42   ar
    76    33    31    1
    77    57    60    1
    78    57    56    1
    79    27    28    1
    80    27    30    1
    81    60    61    1
    82    31    30    1
    83    31    32    1
    84    41    43   ar
    85    42    44   ar
    86    63    61    1
    87    28    29    2
    88    61    62    1
    89    43    44   ar
