@<TRIPOS>MOLECULE
tmp/1lqdB00.pdb
 189 188 0 0 0
SMALL
GASTEIGER

@<TRIPOS>ATOM
      1  N         13.9860   11.1090   14.1470 N.3    42  HIS42      -0.1241
      2  CA        12.5270   11.1410   14.1750 C.3    42  HIS42       0.1621
      3  C         11.9500   12.5260   14.5270 C.2    42  HIS42       0.2264
      4  O         10.8040   12.8210   14.2120 O.2    42  HIS42      -0.2867
      5  CB        11.9760   10.0480   15.0960 C.3    42  HIS42       0.0745
      6  CG        11.9950   10.3940   16.5560 C.ar   42  HIS42       0.0817
      7  ND1       12.8900    9.8340   17.4430 N.ar   42  HIS42      -0.2268
      8  CD2       11.1710   11.1710   17.3030 C.ar   42  HIS42       0.1154
      9  CE1       12.6130   10.2400   18.6730 C.ar   42  HIS42       0.1986
     10  NE2       11.5720   11.0530   18.6160 N.ar   42  HIS42      -0.2212
     11  N         10.0760    2.4640   11.2250 N.3    83  GLU83      -0.1231
     12  CA         9.4430    1.2520   11.7390 C.3    83  GLU83       0.1699
     13  C          9.8520    0.8470   13.1480 C.2    83  GLU83       0.2593
     14  O          9.0150    0.4440   13.9540 O.2    83  GLU83      -0.2718
     15  CB         9.7050    0.0690   10.7960 C.3    83  GLU83       0.0402
     16  CG         9.6490    0.3940    9.3110 C.3    83  GLU83       0.1161
     17  CD         8.2580    0.7930    8.8420 C.2    83  GLU83       0.3649
     18  OE1        7.2640    0.2940    9.4170 O.co2  83  GLU83      -0.2457
     19  OE2        8.1750    1.6010    7.8910 O.co2  83  GLU83      -0.2457
     20  N         11.1530    0.8610   13.4060 N.am   84  THR84      -0.1939
     21  CA        11.6800    0.4480   14.6960 C.3    84  THR84       0.2028
     22  C         12.4370    1.5470   15.4020 C.2    84  THR84       0.2642
     23  O         12.7890    1.4060   16.5720 O.2    84  THR84      -0.2714
     24  CB        12.6920   -0.6780   14.4920 C.3    84  THR84       0.1808
     25  OG1       13.4540   -0.4150   13.3000 O.3    84  THR84      -0.2208
     26  CG2       11.9890   -2.0150   14.3570 C.3    84  THR84       0.0379
     27  N         12.7330    2.6130   14.6630 N.am   85  TYR85      -0.1973
     28  CA        13.5080    3.7430   15.1740 C.3    85  TYR85       0.1639
     29  C         14.9910    3.3990   15.2230 C.2    85  TYR85       0.2290
     30  O         15.7370    3.9820   16.0090 O.2    85  TYR85      -0.2864
     31  CB        13.0400    4.2110   16.5530 C.3    85  TYR85       0.0560
     32  CG        11.9450    5.2440   16.5190 C.ar   85  TYR85      -0.0198
     33  CD1       11.1730    5.4370   15.3720 C.ar   85  TYR85      -0.0009
     34  CD2       11.6540    6.0070   17.6470 C.ar   85  TYR85      -0.0009
     35  CE1       10.1360    6.3610   15.3530 C.ar   85  TYR85       0.0417
     36  CE2       10.6180    6.9310   17.6370 C.ar   85  TYR85       0.0417
     37  CZ         9.8640    7.1000   16.4880 C.ar   85  TYR85       0.1957
     38  OH         8.8280    8.0010   16.4830 O.3    85  TYR85      -0.2866
     39  N          7.2120   15.8390   28.9540 N.3   132  ARG132     -0.1245
     40  CA         6.1210   15.5630   29.8790 C.3   132  ARG132      0.1563
     41  C          6.6260   15.1040   31.2330 C.2   132  ARG132      0.2260
     42  O          7.5790   14.3330   31.3180 O.2   132  ARG132     -0.2867
     43  CB         5.2070   14.4750   29.3060 C.3   132  ARG132      0.0307
     44  CG         4.5420   14.8370   27.9920 C.3   132  ARG132      0.0489
     45  CD         3.7190   13.6700   27.4900 C.3   132  ARG132      0.2205
     46  NE         3.3360   13.8040   26.0880 N.pl3 132  ARG132     -0.0865
     47  CZ         2.2060   14.3670   25.6710 C.cat 132  ARG132      0.5346
     48  NH1        1.9370   14.4470   24.3750 N.pl3 132  ARG132      0.1354
     49  NH2        1.3500   14.8700   26.5480 N.pl3 132  ARG132      0.1354
     50  N          3.1060   10.5830   31.9470 N.3   135  GLU135     -0.1245
     51  CA         2.7580   10.0270   30.6430 C.3   135  GLU135      0.1567
     52  C          1.6490   10.7790   29.9290 C.2   135  GLU135      0.2260
     53  O          1.7090   10.9630   28.7150 O.2   135  GLU135     -0.2867
     54  CB         2.4110    8.5430   30.7480 C.3   135  GLU135      0.0388
     55  CG         2.6010    7.7730   29.4490 C.3   135  GLU135      0.1160
     56  CD         2.1340    6.3370   29.5610 C.2   135  GLU135      0.3649
     57  OE1        2.7450    5.5590   30.3310 O.co2 135  GLU135     -0.2457
     58  OE2        1.1490    5.9910   28.8780 O.co2 135  GLU135     -0.2457
     59  N          9.2010   -4.3120   21.6790 N.3   162  PHE162     -0.1241
     60  CA         9.7630   -3.9770   20.3750 C.3   162  PHE162      0.1605
     61  C         11.2450   -4.2880   20.3460 C.2   162  PHE162      0.2264
     62  O         11.8960   -4.3200   21.3860 O.2   162  PHE162     -0.2867
     63  CB         9.4640   -2.5300   20.0100 C.3   162  PHE162      0.0534
     64  CG         8.0120   -2.1900   20.1030 C.ar  162  PHE162     -0.0203
     65  CD1        7.2060   -2.2280   18.9830 C.ar  162  PHE162     -0.0042
     66  CD2        7.4370   -1.8910   21.3300 C.ar  162  PHE162     -0.0042
     67  CE1        5.8410   -1.9780   19.0810 C.ar  162  PHE162     -0.0003
     68  CE2        6.0810   -1.6440   21.4380 C.ar  162  PHE162     -0.0003
     69  CZ         5.2790   -1.6870   20.3110 C.ar  162  PHE162     -0.0000
     70  N         11.5820    8.4680   34.6240 N.3   179  ASP179     -0.1225
     71  CA        11.9230    8.0760   33.2670 C.3   179  ASP179      0.1805
     72  C         11.7120    9.2970   32.3930 C.2   179  ASP179      0.2598
     73  O         11.0770   10.2590   32.8130 O.2   179  ASP179     -0.2718
     74  CB        10.9570    6.9780   32.8230 C.3   179  ASP179      0.1424
     75  CG        11.2290    6.4630   31.4220 C.2   179  ASP179      0.3668
     76  OD1       12.3650    6.5800   30.9130 O.co2 179  ASP179     -0.2456
     77  OD2       10.2850    5.9010   30.8380 O.co2 179  ASP179     -0.2456
     78  N         12.3500    9.3140   31.2330 N.am  180  ALA180     -0.1966
     79  CA        12.1760   10.4130   30.3060 C.3   180  ALA180      0.1728
     80  C         10.7650   10.2140   29.7470 C.2   180  ALA180      0.2616
     81  O         10.0560    9.3080   30.1780 O.2   180  ALA180     -0.2715
     82  CB        13.2200   10.3320   29.1920 C.3   180  ALA180      0.0334
     83  N         10.3390   11.0890   28.8460 N.am  181  CYS181     -0.1954
     84  CA         9.0190   10.9870   28.2430 C.3   181  CYS181      0.1843
     85  C          8.9600   11.8520   26.9930 C.2   181  CYS181      0.2625
     86  O          9.9470   12.4820   26.6080 O.2   181  CYS181     -0.2714
     87  CB         7.9120   11.3710   29.2310 C.3   181  CYS181      0.0997
     88  SG         6.2600   10.7270   28.7790 S.3   181  CYS181     -0.0797
     89  N          7.8170   11.8490   26.3280 N.am  182  GLN182     -0.1977
     90  CA         7.6590   12.6380   25.1210 C.3   182  GLN182      0.1601
     91  C          8.0400   14.1020   25.3250 C.2   182  GLN182      0.2287
     92  O          7.6510   14.7390   26.3120 O.2   182  GLN182     -0.2864
     93  CB         6.2410   12.5140   24.5940 C.3   182  GLN182      0.0394
     94  CG         6.2010   12.1950   23.1350 C.3   182  GLN182      0.0908
     95  CD         5.5100   13.2740   22.3690 C.2   182  GLN182      0.2608
     96  OE1        5.1760   14.3170   22.9280 O.2   182  GLN182     -0.2717
     97  NE2        5.2860   13.0440   21.0830 N.am  182  GLN182     -0.0878
     98  N         12.6060   13.5710   23.8510 N.3   185  SER185     -0.1217
     99  CA        13.2070   12.9150   22.6800 C.3   185  SER185      0.1889
    100  C         14.1960   13.7830   21.9020 C.2   185  SER185      0.2288
    101  O         13.9570   14.9730   21.6950 O.2   185  SER185     -0.2866
    102  CB        12.1200   12.3560   21.7610 C.3   185  SER185      0.2089
    103  OG        11.0020   11.9460   22.5280 O.3   185  SER185     -0.2183
    104  N         17.7750   10.5200   23.7320 N.3   203  VAL203     -0.1231
    105  CA        16.4540   10.0070   24.1220 C.3   203  VAL203      0.1692
    106  C         15.7730    9.6020   22.8040 C.2   203  VAL203      0.2593
    107  O         15.7130   10.4030   21.8590 O.2   203  VAL203     -0.2718
    108  CB        15.6330   11.0730   24.9040 C.3   203  VAL203      0.0266
    109  CG1       14.2780   10.5570   25.2840 C.3   203  VAL203      0.0020
    110  CG2       16.3690   11.5030   26.1420 C.3   203  VAL203      0.0020
    111  N         15.3530    8.3420   22.7110 N.am  204  SER204     -0.1938
    112  CA        14.7680    7.8420   21.4780 C.3   204  SER204      0.2055
    113  C         13.2970    7.4750   21.5460 C.2   204  SER204      0.2643
    114  O         12.4850    8.0250   20.7920 O.2   204  SER204     -0.2714
    115  CB        15.6010    6.6710   20.9300 C.3   204  SER204      0.2130
    116  OG        15.1990    6.2950   19.6160 O.3   204  SER204     -0.2179
    117  N         12.9660    6.4930   22.3810 N.am  205  TRP205     -0.1959
    118  CA        11.5870    6.0410   22.5320 C.3   205  TRP205      0.1771
    119  C         11.4540    5.1820   23.7800 C.2   205  TRP205      0.2620
    120  O         12.4220    5.0010   24.5180 O.2   205  TRP205     -0.2715
    121  CB        11.1120    5.2810   21.2870 C.3   205  TRP205      0.0590
    122  CG        11.8490    4.0070   21.0080 C.ar  205  TRP205      0.0006
    123  CD1       13.0070    3.8610   20.2910 C.ar  205  TRP205      0.0946
    124  CD2       11.4780    2.6880   21.4310 C.ar  205  TRP205      0.0152
    125  NE1       13.3770    2.5390   20.2470 N.ar  205  TRP205     -0.2442
    126  CE2       12.4530    1.7980   20.9390 C.ar  205  TRP205      0.0810
    127  CE3       10.4070    2.1780   22.1850 C.ar  205  TRP205      0.0012
    128  CZ2       12.3940    0.4180   21.1740 C.ar  205  TRP205      0.0191
    129  CZ3       10.3490    0.8050   22.4180 C.ar  205  TRP205      0.0001
    130  CH2       11.3370   -0.0550   21.9140 C.ar  205  TRP205      0.0015
    131  N         10.2650    4.6410   24.0060 N.am  206  GLY206     -0.1940
    132  CA        10.0340    3.8160   25.1740 C.3   206  GLY206      0.2014
    133  C          8.5830    3.4020   25.1610 C.2   206  GLY206      0.2639
    134  O          7.8560    3.7950   24.2520 O.2   206  GLY206     -0.2714
    135  N          8.1750    2.5530   26.1010 N.am  207  GLU207     -0.1963
    136  CA         6.7790    2.1170   26.1680 C.3   207  GLU207      0.1733
    137  C          6.0850    2.8800   27.2940 C.2   207  GLU207      0.2617
    138  O          6.3080    2.6080   28.4800 O.2   207  GLU207     -0.2715
    139  CB         6.6910    0.6130   26.3600 C.3   207  GLU207      0.0429
    140  CG         7.0630   -0.1570   25.1030 C.3   207  GLU207      0.1163
    141  CD         6.8940   -1.6490   25.2720 C.2   207  GLU207      0.3649
    142  OE1        5.7330   -2.1100   25.2820 O.co2 207  GLU207     -0.2457
    143  OE2        7.9160   -2.3560   25.4100 O.co2 207  GLU207     -0.2457
    144  N          5.2950    3.8820   26.9160 N.am  208  GLY208     -0.1940
    145  CA         4.6530    4.7150   27.9090 C.3   208  GLY208      0.2014
    146  C          5.8010    5.4480   28.5840 C.2   208  GLY208      0.2639
    147  O          6.9110    5.4940   28.0450 O.2   208  GLY208     -0.2714
    148  N          5.5760    5.9960   29.7660 N.am  209  CYS209     -0.1967
    149  CA         6.6610    6.6690   30.4530 C.3   209  CYS209      0.1712
    150  C          6.6730    6.2810   31.9160 C.2   209  CYS209      0.2296
    151  O          5.7120    6.5460   32.6390 O.2   209  CYS209     -0.2864
    152  CB         6.5700    8.1770   30.2980 C.3   209  CYS209      0.0983
    153  SG         6.5690    8.7460   28.5750 S.3   209  CYS209     -0.0798
    154  N         11.5670    0.1870   30.1840 N.3   215  TYR215     -0.1227
    155  CA        12.6940    1.1140   30.3350 C.3   215  TYR215      0.1736
    156  C         12.6840    2.2290   29.2860 C.2   215  TYR215      0.2596
    157  O         11.7610    2.3120   28.4820 O.2   215  TYR215     -0.2718
    158  CB        14.0110    0.3440   30.2590 C.3   215  TYR215      0.0548
    159  CG        14.1170   -0.7600   31.2840 C.ar  215  TYR215     -0.0200
    160  CD1       14.4270   -0.4690   32.6110 C.ar  215  TYR215     -0.0009
    161  CD2       13.8970   -2.0980   30.9300 C.ar  215  TYR215     -0.0009
    162  CE1       14.5140   -1.4770   33.5700 C.ar  215  TYR215      0.0417
    163  CE2       13.9820   -3.1170   31.8770 C.ar  215  TYR215      0.0417
    164  CZ        14.2930   -2.8010   33.2030 C.ar  215  TYR215      0.1957
    165  OH        14.3900   -3.7970   34.1670 O.3   215  TYR215     -0.2866
    166  N         13.6470    3.1430   29.3690 N.am  216  GLY216     -0.1942
    167  CA        13.7330    4.2030   28.3880 C.3   216  GLY216      0.2014
    168  C         14.7600    3.7430   27.3760 C.2   216  GLY216      0.2639
    169  O         15.8270    3.2650   27.7680 O.2   216  GLY216     -0.2714
    170  N         14.4370    3.8350   26.0890 N.am  217  ILE217     -0.1963
    171  CA        15.3540    3.4090   25.0300 C.3   217  ILE217      0.1727
    172  C         16.0830    4.6050   24.4010 C.2   217  ILE217      0.2616
    173  O         15.4430    5.5370   23.8930 O.2   217  ILE217     -0.2715
    174  CB        14.6160    2.6280   23.9250 C.3   217  ILE217      0.0290
    175  CG1       13.5240    1.7300   24.5190 C.3   217  ILE217      0.0022
    176  CG2       15.5960    1.8440   23.0810 C.3   217  ILE217      0.0023
    177  CD1       14.0500    0.6410   25.4110 C.3   217  ILE217      0.0001
    178  N         17.4120    4.5200   24.3480 N.am  218  TYR218     -0.1974
    179  CA        18.2640    5.5860   23.8160 C.3   218  TYR218      0.1639
    180  C         19.1180    5.1260   22.6420 C.2   218  TYR218      0.2290
    181  O         19.4750    3.9380   22.5450 O.2   218  TYR218     -0.2864
    182  CB        19.2170    6.0970   24.9090 C.3   218  TYR218      0.0560
    183  CG        18.5330    6.6430   26.1520 C.ar  218  TYR218     -0.0198
    184  CD1       18.0670    5.7850   27.1530 C.ar  218  TYR218     -0.0009
    185  CD2       18.2980    8.0130   26.2990 C.ar  218  TYR218     -0.0009
    186  CE1       17.3730    6.2730   28.2580 C.ar  218  TYR218      0.0417
    187  CE2       17.6090    8.5040   27.4010 C.ar  218  TYR218      0.0417
    188  CZ        17.1450    7.6260   28.3700 C.ar  218  TYR218      0.1957
    189  OH        16.4080    8.1040   29.4240 O.3   218  TYR218     -0.2866
@<TRIPOS>BOND
     1    19    17   ar
     2    17    16    1
     3    17    18   ar
     4    16    15    1
     5    15    12    1
     6    11    12    1
     7    12    13    1
     8    13    20   am
     9    13    14    2
    10    25    24    1
    11    20    21    1
    12     1     2    1
    13     2     3    1
    14     2     5    1
    15     4     3    2
    16    26    24    1
    17    24    21    1
    18    27    28    1
    19    27    22   am
    20    21    22    1
    21     5     6    1
    22    28    29    1
    23    28    31    1
    24    29    30    2
    25    35    33   ar
    26    35    37   ar
    27    33    32   ar
    28    22    23    2
    29    38    37    1
    30    37    36   ar
    31    32    31    1
    32    32    34   ar
    33     6     8   ar
    34     6     7   ar
    35     8    10   ar
    36     7     9   ar
    37    36    34   ar
    38    10     9   ar
    39    65    67   ar
    40    65    64   ar
    41    67    69   ar
    42   116   115    1
    43    63    64    1
    44    63    60    1
    45    64    66   ar
    46   125   123   ar
    47   125   126   ar
    48   123   122   ar
    49    69    68   ar
    50    61    60    1
    51    61    62    2
    52    60    59    1
    53   114   113    2
    54   115   112    1
    55   126   128   ar
    56   126   124   ar
    57   122   121    1
    58   122   124   ar
    59    97    95   am
    60   128   130   ar
    61   121   118    1
    62    66    68   ar
    63   124   127   ar
    64   112   113    1
    65   112   111    1
    66   113   117   am
    67   101   100    2
    68   102   103    1
    69   102    99    1
    70   107   106    2
    71   100    99    1
    72   130   129   ar
    73   127   129   ar
    74    95    96    2
    75    95    94    1
    76   117   118    1
    77   118   119    1
    78   181   180    2
    79   180   179    1
    80    99    98    1
    81   111   106   am
    82   106   105    1
    83   176   174    1
    84    94    93    1
    85   104   105    1
    86   119   131   am
    87   119   120    2
    88   179   178    1
    89   179   182    1
    90   173   172    2
    91   174   175    1
    92   174   171    1
    93   131   132    1
    94   105   108    1
    95   134   133    2
    96   178   172   am
    97    48    47    1
    98   172   171    1
    99   175   177    1
   100    93    90    1
   101   108   109    1
   102   108   110    1
   103   182   183    1
   104   171   170    1
   105   140   141    1
   106   140   139    1
   107    90    91    1
   108    90    89    1
   109   133   132    1
   110   133   135   am
   111   141   142   ar
   112   141   143   ar
   113    91    92    2
   114    47    46    2
   115    47    49    1
   116    46    45    1
   117   170   168   am
   118   135   136    1
   119   183   185   ar
   120   183   184   ar
   121   136   139    1
   122   136   137    1
   123   185   187   ar
   124    89    85   am
   125    86    85    2
   126   144   137   am
   127   144   145    1
   128    85    84    1
   129   184   186   ar
   130   137   138    2
   131   168   169    2
   132   168   167    1
   133   187   188   ar
   134    45    44    1
   135   145   146    1
   136    44    43    1
   137   147   146    2
   138    84    83    1
   139    84    87    1
   140   186   188   ar
   141   188   189    1
   142   167   166    1
   143   157   156    2
   144   153    88    1
   145   153   152    1
   146   146   148   am
   147    53    52    2
   148    88    87    1
   149    83    80   am
   150    58    56   ar
   151    39    40    1
   152    82    79    1
   153   156   166   am
   154   156   155    1
   155    43    40    1
   156    55    56    1
   157    55    54    1
   158    56    57   ar
   159    80    81    2
   160    80    79    1
   161   148   149    1
   162    40    41    1
   163    52    51    1
   164   154   155    1
   165   158   155    1
   166   158   159    1
   167   152   149    1
   168    79    78    1
   169   149   150    1
   170    51    54    1
   171    51    50    1
   172    77    75   ar
   173    76    75   ar
   174   161   159   ar
   175   161   163   ar
   176    41    42    2
   177    78    72   am
   178   159   160   ar
   179    75    74    1
   180   163   164   ar
   181   150   151    2
   182    72    73    2
   183    72    71    1
   184   160   162   ar
   185    74    71    1
   186   164   162   ar
   187   164   165    1
   188    71    70    1
