@<TRIPOS>MOLECULE
tmp/1lqeA00.pdb
 170 166 0 0 0
SMALL
GASTEIGER

@<TRIPOS>ATOM
      1  N         23.9730   -7.4690   31.9240 N.3    40  HIS40      -0.1241
      2  CA        23.9910   -6.4030   32.9160 C.3    40  HIS40       0.1621
      3  C         22.7220   -6.3330   33.7720 C.2    40  HIS40       0.2264
      4  O         22.6340   -5.5270   34.6920 O.2    40  HIS40      -0.2867
      5  CB        24.3240   -5.0440   32.2790 C.3    40  HIS40       0.0745
      6  CG        23.1680   -4.3670   31.6150 C.ar   40  HIS40       0.0817
      7  ND1       22.9220   -4.4640   30.2600 N.ar   40  HIS40      -0.2268
      8  CD2       22.2280   -3.5160   32.1050 C.ar   40  HIS40       0.1154
      9  CE1       21.8930   -3.7000   29.9420 C.ar   40  HIS40       0.1986
     10  NE2       21.4550   -3.1180   31.0390 N.ar   40  HIS40      -0.2212
     11  N         31.7910   -6.0210   32.0080 N.3    78  SER78      -0.1202
     12  CA        30.9430   -4.9690   32.5570 C.3    78  SER78       0.2020
     13  C         31.3630   -3.5370   32.2710 C.2    78  SER78       0.2619
     14  O         30.5820   -2.6080   32.4850 O.2    78  SER78      -0.2717
     15  CB        30.7450   -5.1720   34.0640 C.3    78  SER78       0.2103
     16  OG        31.9810   -5.3280   34.7400 O.3    78  SER78      -0.2182
     17  N         32.5930   -3.3390   31.8160 N.am   79  ASN79      -0.1960
     18  CA        33.0410   -1.9870   31.5180 C.3    79  ASN79       0.1819
     19  C         32.8000   -1.6320   30.0630 C.2    79  ASN79       0.2622
     20  O         32.4110   -0.5130   29.7540 O.2    79  ASN79      -0.2715
     21  CB        34.5130   -1.8000   31.8910 C.3    79  ASN79       0.1195
     22  CG        34.7360   -1.8490   33.4000 C.2    79  ASN79       0.2630
     23  OD1       35.4770   -2.6900   33.9050 O.2    79  ASN79      -0.2716
     24  ND2       34.0470   -0.9750   34.1290 N.am   79  ASN79      -0.0877
     25  N         32.9940   -2.6030   29.1810 N.am   80  THR80      -0.1937
     26  CA        32.7900   -2.3860   27.7560 C.3    80  THR80       0.2028
     27  C         31.3940   -2.8300   27.3150 C.2    80  THR80       0.2642
     28  O         30.9040   -2.4110   26.2750 O.2    80  THR80      -0.2714
     29  CB        33.8280   -3.1730   26.9290 C.3    80  THR80       0.1808
     30  OG1       33.6810   -4.5750   27.1750 O.3    80  THR80      -0.2208
     31  CG2       35.2300   -2.7630   27.3140 C.3    80  THR80       0.0379
     32  N         30.7660   -3.6710   28.1310 N.am   81  LEU81      -0.1977
     33  CA        29.4540   -4.2410   27.8420 C.3    81  LEU81       0.1596
     34  C         29.5280   -5.2110   26.6670 C.2    81  LEU81       0.2287
     35  O         28.5160   -5.5670   26.0560 O.2    81  LEU81      -0.2864
     36  CB        28.3700   -3.1700   27.6330 C.3    81  LEU81       0.0297
     37  CG        27.9170   -2.4250   28.8930 C.3    81  LEU81       0.0022
     38  CD1       26.6240   -1.6980   28.6010 C.3    81  LEU81       0.0001
     39  CD2       27.7020   -3.3950   30.0450 C.3    81  LEU81       0.0001
     40  N         11.8910    3.8730   30.8990 N.3   123  ASN123     -0.1240
     41  CA        11.6430    5.3020   30.9280 C.3   123  ASN123      0.1653
     42  C         11.1740    5.8480   29.5730 C.2   123  ASN123      0.2266
     43  O         11.7340    5.5110   28.5290 O.2   123  ASN123     -0.2867
     44  CB        12.9270    5.9980   31.3580 C.3   123  ASN123      0.1155
     45  CG        12.7240    7.4560   31.6910 C.2   123  ASN123      0.2627
     46  OD1       11.5960    7.9400   31.7850 O.2   123  ASN123     -0.2716
     47  ND2       13.8190    8.1620   31.8990 N.am  123  ASN123     -0.0877
     48  N         34.0650    2.2770   20.7980 N.3   155  GLN155     -0.1245
     49  CA        33.2260    1.5750   21.7660 C.3   155  GLN155      0.1566
     50  C         32.3360    0.4820   21.1870 C.2   155  GLN155      0.2260
     51  O         31.6760   -0.2330   21.9330 O.2   155  GLN155     -0.2867
     52  CB        32.3610    2.5830   22.5130 C.3   155  GLN155      0.0367
     53  CG        33.1470    3.6780   23.2020 C.3   155  GLN155      0.0905
     54  CD        32.3410    4.9560   23.3340 C.2   155  GLN155      0.2608
     55  OE1       32.3050    5.7850   22.4190 O.2   155  GLN155     -0.2717
     56  NE2       31.6890    5.1200   24.4670 N.am  155  GLN155     -0.0878
     57  N         13.8410    6.2870   20.9760 N.3   171  ASP171     -0.1225
     58  CA        14.9320    5.4070   21.4170 C.3   171  ASP171      0.1805
     59  C         14.4460    4.5270   22.5670 C.2   171  ASP171      0.2598
     60  O         13.3340    4.7100   23.0690 O.2   171  ASP171     -0.2718
     61  CB        16.0590    6.3260   21.9310 C.3   171  ASP171      0.1424
     62  CG        17.3910    5.6230   22.1260 C.2   171  ASP171      0.3668
     63  OD1       18.2990    6.2940   22.6650 O.co2 171  ASP171     -0.2456
     64  OD2       17.5700    4.4490   21.7420 O.co2 171  ASP171     -0.2456
     65  N         15.2110    3.4960   22.9060 N.am  172  SER172     -0.1938
     66  CA        14.8780    2.6960   24.0770 C.3   172  SER172      0.2055
     67  C         15.5970    3.4670   25.1920 C.2   172  SER172      0.2643
     68  O         16.4060    4.3660   24.9160 O.2   172  SER172     -0.2714
     69  CB        15.4050    1.2630   23.9520 C.3   172  SER172      0.2130
     70  OG        16.7620    1.2040   23.5590 O.3   172  SER172     -0.2179
     71  N         15.3610    3.1100   26.4420 N.am  173  CYS173     -0.1953
     72  CA        15.9780    3.8340   27.5410 C.3   173  CYS173      0.1843
     73  C         16.1080    2.8930   28.7430 C.2   173  CYS173      0.2625
     74  O         15.7310    1.7310   28.6410 O.2   173  CYS173     -0.2714
     75  CB        15.0640    5.0190   27.8860 C.3   173  CYS173      0.0997
     76  SG        15.8620    6.3790   28.8300 S.3   173  CYS173     -0.0797
     77  N         16.6500    3.3730   29.8550 N.am  174  GLN174     -0.1977
     78  CA        16.7870    2.5020   31.0040 C.3   174  GLN174      0.1601
     79  C         15.4470    1.9040   31.4110 C.2   174  GLN174      0.2287
     80  O         14.4080    2.5880   31.4180 O.2   174  GLN174     -0.2864
     81  CB        17.4640    3.1920   32.1790 C.3   174  GLN174      0.0394
     82  CG        18.8650    2.5880   32.5350 C.3   174  GLN174      0.0908
     83  CD        18.8800    1.0400   32.6420 C.2   174  GLN174      0.2608
     84  OE1       17.8340    0.3800   32.6700 O.2   174  GLN174     -0.2717
     85  NE2       20.0690    0.4610   32.7020 N.am  174  GLN174     -0.0878
     86  N         16.3140   -2.2130   29.0650 N.3   177  SER177     -0.1217
     87  CA        17.4890   -3.0860   29.0710 C.3   177  SER177      0.1889
     88  C         17.1280   -4.5740   29.1380 C.2   177  SER177      0.2288
     89  O         16.2330   -4.9650   29.8830 O.2   177  SER177     -0.2866
     90  CB        18.3770   -2.7090   30.2600 C.3   177  SER177      0.2089
     91  OG        18.6920   -1.3280   30.2340 O.3   177  SER177     -0.2183
     92  N         18.3450   -5.0340   24.1360 N.3   191  VAL191     -0.1231
     93  CA        18.6350   -3.6630   24.5700 C.3   191  VAL191      0.1692
     94  C         19.8480   -3.6890   25.5140 C.2   191  VAL191      0.2593
     95  O         19.8300   -4.3620   26.5430 O.2   191  VAL191     -0.2718
     96  CB        17.4230   -3.0270   25.2820 C.3   191  VAL191      0.0266
     97  CG1       17.7410   -1.5950   25.6960 C.3   191  VAL191      0.0020
     98  CG2       16.2070   -3.0670   24.3730 C.3   191  VAL191      0.0020
     99  N         20.9020   -2.9700   25.1540 N.am  192  SER192     -0.1938
    100  CA        22.1160   -2.9620   25.9470 C.3   192  SER192      0.2055
    101  C         22.4490   -1.5970   26.5630 C.2   192  SER192      0.2643
    102  O         22.2260   -1.3850   27.7590 O.2   192  SER192     -0.2714
    103  CB        23.2720   -3.5160   25.0960 C.3   192  SER192      0.2130
    104  OG        24.4190   -3.7890   25.8700 O.3   192  SER192     -0.2179
    105  N         22.9200   -0.6500   25.7550 N.am  193  TRP193     -0.1959
    106  CA        23.2870    0.6620   26.2740 C.3   193  TRP193      0.1771
    107  C         23.1450    1.7910   25.2630 C.2   193  TRP193      0.2620
    108  O         22.5350    1.6330   24.2210 O.2   193  TRP193     -0.2715
    109  CB        24.7230    0.6460   26.8010 C.3   193  TRP193      0.0590
    110  CG        25.7700    0.3750   25.7520 C.ar  193  TRP193      0.0006
    111  CD1       26.1390   -0.8440   25.2630 C.ar  193  TRP193      0.0946
    112  CD2       26.6190    1.3380   25.0990 C.ar  193  TRP193      0.0152
    113  NE1       27.1630   -0.7080   24.3570 N.ar  193  TRP193     -0.2442
    114  CE2       27.4780    0.6180   24.2350 C.ar  193  TRP193      0.0810
    115  CE3       26.7330    2.7320   25.1610 C.ar  193  TRP193      0.0012
    116  CZ2       28.4390    1.2480   23.4370 C.ar  193  TRP193      0.0191
    117  CZ3       27.6930    3.3620   24.3630 C.ar  193  TRP193      0.0001
    118  CH2       28.5320    2.6160   23.5140 C.ar  193  TRP193      0.0015
    119  N         23.6990    2.9400   25.6160 N.am  194  GLY194     -0.1940
    120  CA        23.6610    4.1140   24.7670 C.3   194  GLY194      0.2014
    121  C         24.0590    5.2880   25.6300 C.2   194  GLY194      0.2640
    122  O         24.4680    5.0740   26.7690 O.2   194  GLY194     -0.2714
    123  N         23.9980    6.5000   25.0840 N.am  195  SER195     -0.1935
    124  CA        24.3110    7.7150   25.8350 C.3   195  SER195      0.2055
    125  C         23.0170    8.4790   26.0000 C.2   195  SER195      0.2644
    126  O         22.5180    9.0750   25.0380 O.2   195  SER195     -0.2714
    127  CB        25.3060    8.5990   25.0900 C.3   195  SER195      0.2130
    128  OG        26.5980    8.4690   25.6450 O.3   195  SER195     -0.2179
    129  N         22.4850    8.4810   27.2150 N.am  196  GLY196     -0.1939
    130  CA        21.2250    9.1530   27.4530 C.3   196  GLY196      0.2014
    131  C         20.1430    8.3740   26.7280 C.2   196  GLY196      0.2639
    132  O         20.2530    7.1570   26.5350 O.2   196  GLY196     -0.2714
    133  N         19.1120    9.0750   26.2910 N.am  197  CYS197     -0.1967
    134  CA        18.0220    8.4340   25.5730 C.3   197  CYS197      0.1712
    135  C         17.4170    9.3810   24.5860 C.2   197  CYS197      0.2296
    136  O         17.0930   10.5110   24.9270 O.2   197  CYS197     -0.2864
    137  CB        16.9460    7.9770   26.5380 C.3   197  CYS197      0.0983
    138  SG        17.5440    6.7480   27.7490 S.3   197  CYS197     -0.0798
    139  N         23.1180   10.0580   19.0010 N.3   202  LYS202     -0.1245
    140  CA        23.5030    9.0520   19.9880 C.3   202  LYS202      0.1561
    141  C         22.4310    7.9730   19.9890 C.2   202  LYS202      0.2260
    142  O         21.5410    7.9690   20.8430 O.2   202  LYS202     -0.2867
    143  CB        23.6210    9.6670   21.3940 C.3   202  LYS202      0.0271
    144  CG        24.7320   10.6880   21.5370 C.3   202  LYS202      0.0035
    145  CD        26.0700   10.0520   21.1980 C.3   202  LYS202      0.0206
    146  CE        27.1850   11.0820   21.1500 C.3   202  LYS202      0.1093
    147  NZ        28.4940   10.4790   20.7540 N.3   202  LYS202     -0.1314
    148  N         20.7100    4.0030   20.0290 N.3   204  GLY204     -0.1210
    149  CA        20.8270    2.9020   20.9690 C.3   204  GLY204      0.1956
    150  C         21.7730    1.8260   20.4720 C.2   204  GLY204      0.2612
    151  O         21.9140    1.6300   19.2750 O.2   204  GLY204     -0.2717
    152  N         22.4230    1.1350   21.3990 N.am  205  VAL205     -0.1965
    153  CA        23.3580    0.0650   21.0780 C.3   205  VAL205      0.1727
    154  C         22.7660   -1.2450   21.5840 C.2   205  VAL205      0.2616
    155  O         22.2650   -1.3390   22.7140 O.2   205  VAL205     -0.2715
    156  CB        24.7330    0.3170   21.7050 C.3   205  VAL205      0.0290
    157  CG1       25.7620   -0.6670   21.1320 C.3   205  VAL205      0.0023
    158  CG2       25.1620    1.7510   21.4470 C.3   205  VAL205      0.0023
    159  N         22.8490   -2.2670   20.7480 N.am  206  TYR206     -0.1974
    160  CA        22.2460   -3.5380   21.0570 C.3   206  TYR206      0.1639
    161  C         23.1670   -4.7120   20.8960 C.2   206  TYR206      0.2290
    162  O         24.0500   -4.7010   20.0460 O.2   206  TYR206     -0.2864
    163  CB        21.0210   -3.7220   20.1460 C.3   206  TYR206      0.0560
    164  CG        20.0310   -2.5900   20.2650 C.ar  206  TYR206     -0.0198
    165  CD1       18.9670   -2.6790   21.1480 C.ar  206  TYR206     -0.0009
    166  CD2       20.2050   -1.3960   19.5590 C.ar  206  TYR206     -0.0009
    167  CE1       18.1010   -1.6150   21.3380 C.ar  206  TYR206      0.0417
    168  CE2       19.3420   -0.3190   19.7390 C.ar  206  TYR206      0.0417
    169  CZ        18.2900   -0.4400   20.6390 C.ar  206  TYR206      0.1957
    170  OH        17.4240    0.5930   20.9020 O.3   206  TYR206     -0.2866
@<TRIPOS>BOND
     1   139   140    1
     2   151   150    2
     3   166   168   ar
     4   166   164   ar
     5   168   169   ar
     6   140   141    1
     7   140   143    1
     8   141   142    2
     9   148   149    1
    10   162   161    2
    11   163   164    1
    12   163   160    1
    13   164   165   ar
    14   150   149    1
    15   150   152   am
    16   169   170    1
    17   169   167   ar
    18   159   160    1
    19   159   154   am
    20   147   146    1
    21    48    49    1
    22   161   160    1
    23    57    58    1
    24   153   152    1
    25   153   154    1
    26   153   156    1
    27   157   156    1
    28   165   167   ar
    29   146   145    1
    30    50    49    1
    31    50    51    2
    32   145   144    1
    33   143   144    1
    34    58    61    1
    35    58    59    1
    36   158   156    1
    37   154   155    2
    38    64    62   ar
    39    49    52    1
    40    61    62    1
    41    62    63   ar
    42    55    54    2
    43    52    53    1
    44    59    65   am
    45    59    60    2
    46    65    66    1
    47    53    54    1
    48    54    56   am
    49   116   118   ar
    50   116   114   ar
    51   118   117   ar
    52    70    69    1
    53    69    66    1
    54    66    67    1
    55    92    93    1
    56   108   107    2
    57   114   113   ar
    58   114   112   ar
    59   113   111   ar
    60   117   115   ar
    61    98    96    1
    62    93    96    1
    63    93    94    1
    64   135   136    2
    65   135   134    1
    66   120   119    1
    67   120   121    1
    68    68    67    2
    69   126   125    2
    70   123   121   am
    71   123   124    1
    72   127   128    1
    73   127   124    1
    74   103   104    1
    75   103   100    1
    76   112   115   ar
    77   112   110   ar
    78    99    94   am
    79    99   100    1
    80    67    71   am
    81   107   119   am
    82   107   106    1
    83   111   110   ar
    84    96    97    1
    85    94    95    2
    86   134   133    1
    87   134   137    1
    88   121   122    2
    89   110   109    1
    90   105   106    1
    91   105   101   am
    92   124   125    1
    93   100   101    1
    94   125   129   am
    95    35    34    2
    96   106   109    1
    97    28    27    2
    98   133   131   am
    99    71    72    1
   100   132   131    2
   101   137   138    1
   102   101   102    2
   103    34    33    1
   104   131   130    1
   105    29    30    1
   106    29    31    1
   107    29    26    1
   108   129   130    1
   109    27    26    1
   110    27    32   am
   111    72    75    1
   112    72    73    1
   113    36    33    1
   114    36    37    1
   115   138    76    1
   116    26    25    1
   117    33    32    1
   118    75    76    1
   119    43    42    2
   120    38    37    1
   121    74    73    2
   122    73    77   am
   123    37    39    1
   124    86    87    1
   125    87    88    1
   126    87    90    1
   127    88    89    2
   128    25    19   am
   129    42    41    1
   130    20    19    2
   131    77    78    1
   132     9     7   ar
   133     9    10   ar
   134    19    18    1
   135    91    90    1
   136     7     6   ar
   137    40    41    1
   138    41    44    1
   139    78    79    1
   140    78    81    1
   141    10     8   ar
   142    44    45    1
   143    79    80    2
   144    18    17    1
   145    18    21    1
   146     6     8   ar
   147     6     5    1
   148    45    46    2
   149    45    47   am
   150    17    13   am
   151    21    22    1
   152     1     2    1
   153    11    12    1
   154    81    82    1
   155    13    14    2
   156    13    12    1
   157     5     2    1
   158    82    83    1
   159    12    15    1
   160    83    84    2
   161    83    85   am
   162     2     3    1
   163    22    23    2
   164    22    24   am
   165     3     4    2
   166    15    16    1
