@<TRIPOS>MOLECULE
tmp/1lqfD00.pdb
 178 172 0 0 0
SMALL
GASTEIGER

@<TRIPOS>ATOM
      1  N         63.9280    2.5430  -25.0050 N.3    40  LYS40      -0.1245
      2  CA        65.1880    2.5610  -25.7550 C.3    40  LYS40       0.1561
      3  C         65.5390    3.7930  -26.6120 C.2    40  LYS40       0.2260
      4  O         66.5900    3.8260  -27.2750 O.2    40  LYS40      -0.2867
      5  CB        65.2660    1.2830  -26.6060 C.3    40  LYS40       0.0271
      6  CG        65.4980    0.0330  -25.7720 C.3    40  LYS40       0.0035
      7  CD        66.8140    0.1820  -25.0260 C.3    40  LYS40       0.0206
      8  CE        67.0600   -0.8920  -23.9680 C.3    40  LYS40       0.1093
      9  NZ        68.3070   -0.5760  -23.1770 N.3    40  LYS40      -0.1314
     10  N         66.7500    5.3090  -17.3730 N.3    48  ASN48      -0.1225
     11  CA        66.7160    3.8820  -17.0350 C.3    48  ASN48       0.1785
     12  C         67.9500    3.3740  -16.2740 C.2    48  ASN48       0.2597
     13  O         68.9820    3.0910  -16.8700 O.2    48  ASN48      -0.2718
     14  CB        66.5220    3.0490  -18.3090 C.3    48  ASN48       0.1169
     15  CG        65.1330    3.2140  -18.9140 C.2    48  ASN48       0.2627
     16  OD1       64.1470    3.2770  -18.1890 O.2    48  ASN48      -0.2716
     17  ND2       65.0490    3.2610  -20.2430 N.am   48  ASN48      -0.0877
     18  N         67.8130    3.2340  -14.9570 N.am   49  ARG49      -0.1966
     19  CA        68.8870    2.7840  -14.0780 C.3    49  ARG49       0.1729
     20  C         69.6710    1.5720  -14.5940 C.2    49  ARG49       0.2616
     21  O         70.8150    1.3640  -14.2150 O.2    49  ARG49      -0.2715
     22  CB        68.3330    2.4680  -12.6880 C.3    49  ARG49       0.0348
     23  CG        69.4050    2.4820  -11.6140 C.3    49  ARG49       0.0492
     24  CD        68.9180    1.9340  -10.3030 C.3    49  ARG49       0.2205
     25  NE        69.6180    2.5720   -9.2020 N.pl3  49  ARG49      -0.0865
     26  CZ        69.5710    3.8820   -8.9530 C.cat  49  ARG49       0.5346
     27  NH1       68.8620    4.6890   -9.7300 N.pl3  49  ARG49       0.1354
     28  NH2       70.2260    4.3950   -7.9210 N.pl3  49  ARG49       0.1354
     29  N         69.0580    0.7550  -15.4380 N.am   50  TYR50      -0.1960
     30  CA        69.7520   -0.4020  -16.0020 C.3    50  TYR50       0.1771
     31  C         69.2380   -0.5570  -17.4180 C.2    50  TYR50       0.2619
     32  O         68.0510   -0.3360  -17.6760 O.2    50  TYR50      -0.2715
     33  CB        69.4730   -1.6620  -15.1960 C.3    50  TYR50       0.0574
     34  CG        69.9260   -1.5620  -13.7650 C.ar   50  TYR50      -0.0198
     35  CD1       69.0760   -1.0660  -12.7680 C.ar   50  TYR50      -0.0009
     36  CD2       71.1950   -2.0000  -13.3900 C.ar   50  TYR50      -0.0009
     37  CE1       69.4860   -1.0190  -11.4220 C.ar   50  TYR50       0.0417
     38  CE2       71.6140   -1.9630  -12.0470 C.ar   50  TYR50       0.0417
     39  CZ        70.7560   -1.4740  -11.0730 C.ar   50  TYR50       0.1957
     40  OH        71.1670   -1.4680   -9.7600 O.3    50  TYR50      -0.2866
     41  N         70.1280   -0.9270  -18.3370 N.am   51  ARG51      -0.1963
     42  CA        69.7460   -1.0600  -19.7470 C.3    51  ARG51       0.1729
     43  C         68.9090   -2.3070  -20.0620 C.2    51  ARG51       0.2616
     44  O         68.0600   -2.2990  -20.9700 O.2    51  ARG51      -0.2715
     45  CB        70.9940   -1.0730  -20.6330 C.3    51  ARG51       0.0348
     46  CG        72.0450   -0.0320  -20.3190 C.3    51  ARG51       0.0492
     47  CD        72.9600    0.1080  -21.5180 C.3    51  ARG51       0.2205
     48  NE        74.3040    0.5500  -21.1630 N.pl3  51  ARG51      -0.0865
     49  CZ        75.3200    0.5930  -22.0210 C.cat  51  ARG51       0.5346
     50  NH1       75.1370    0.2210  -23.2840 N.pl3  51  ARG51       0.1354
     51  NH2       76.5180    1.0010  -21.6210 N.pl3  51  ARG51       0.1354
     52  N         69.1690   -3.3720  -19.3040 N.am   52  ASP52      -0.1957
     53  CA        68.4920   -4.6610  -19.4670 C.3    52  ASP52       0.1840
     54  C         67.1420   -4.7650  -18.7610 C.2    52  ASP52       0.2621
     55  O         66.4680   -5.7920  -18.8760 O.2    52  ASP52      -0.2715
     56  CB        69.4230   -5.7790  -18.9770 C.3    52  ASP52       0.1450
     57  CG        70.0090   -5.4870  -17.6230 C.2    52  ASP52       0.3671
     58  OD1       70.2430   -4.3010  -17.3360 O.co2  52  ASP52      -0.2456
     59  OD2       70.2510   -6.4300  -16.8460 O.co2  52  ASP52      -0.2456
     60  N         66.7640   -3.7180  -18.0240 N.am   53  VAL53      -0.1977
     61  CA        65.4940   -3.6860  -17.3100 C.3    53  VAL53       0.1596
     62  C         64.6920   -2.4730  -17.7440 C.2    53  VAL53       0.2287
     63  O         65.0440   -1.3350  -17.4120 O.2    53  VAL53      -0.2864
     64  CB        65.6880   -3.5980  -15.7910 C.3    53  VAL53       0.0276
     65  CG1       64.3240   -3.5550  -15.0960 C.3    53  VAL53       0.0022
     66  CG2       66.4970   -4.7920  -15.2990 C.3    53  VAL53       0.0022
     67  N         66.6380    7.8410   -9.9810 N.3    92  LEU92      -0.1245
     68  CA        67.9510    8.3480  -10.3350 C.3    92  LEU92       0.1561
     69  C         68.0050    9.7920   -9.8460 C.2    92  LEU92       0.2260
     70  O         66.9650   10.4270   -9.6360 O.2    92  LEU92      -0.2867
     71  CB        68.1430    8.3060  -11.8560 C.3    92  LEU92       0.0270
     72  CG        68.2820    6.9170  -12.4810 C.3    92  LEU92       0.0019
     73  CD1       68.0390    6.9900  -13.9860 C.3    92  LEU92       0.0001
     74  CD2       69.6610    6.3660  -12.1630 C.3    92  LEU92       0.0001
     75  N         77.3040   -0.0980   -3.7460 N.3   122  SER122     -0.1202
     76  CA        76.9860    0.6700   -4.9530 C.3   122  SER122      0.2020
     77  C         75.8110    1.6160   -4.7220 C.2   122  SER122      0.2619
     78  O         75.0860    1.4920   -3.7370 O.2   122  SER122     -0.2717
     79  CB        76.6610   -0.2850   -6.1140 C.3   122  SER122      0.2103
     80  OG        76.3770    0.4260   -7.3090 O.3   122  SER122     -0.2182
     81  N         75.6430    2.5590   -5.6450 N.am  123  LEU123     -0.1965
     82  CA        74.5670    3.5400   -5.5920 C.3   123  LEU123      0.1728
     83  C         73.3510    3.0110   -6.3690 C.2   123  LEU123      0.2616
     84  O         73.1570    3.3240   -7.5570 O.2   123  LEU123     -0.2715
     85  CB        75.0730    4.8570   -6.1820 C.3   123  LEU123      0.0311
     86  CG        74.2050    6.1120   -6.1110 C.3   123  LEU123      0.0022
     87  CD1       73.3160    6.0930   -4.8700 C.3   123  LEU123      0.0001
     88  CD2       75.1380    7.3290   -6.1300 C.3   123  LEU123      0.0001
     89  N         72.5490    2.2040   -5.6640 N.am  124  LYS124     -0.1977
     90  CA        71.3420    1.5580   -6.1930 C.3   124  LYS124      0.1596
     91  C         70.0750    2.4250   -6.1540 C.2   124  LYS124      0.2287
     92  O         69.1180    2.1620   -6.8890 O.2   124  LYS124     -0.2864
     93  CB        71.0840    0.2460   -5.4450 C.3   124  LYS124      0.0298
     94  CG        72.3080   -0.6610   -5.3340 C.3   124  LYS124      0.0038
     95  CD        73.0620   -0.7940   -6.6600 C.3   124  LYS124      0.0206
     96  CE        73.3420   -2.2540   -7.0130 C.3   124  LYS124      0.1093
     97  NZ        72.0760   -2.9860   -7.3280 N.3   124  LYS124     -0.1314
     98  N         69.7800   -7.3450   -2.1160 N.3   185  ASP185     -0.1225
     99  CA        69.4060   -7.5040   -3.5070 C.3   185  ASP185      0.1805
    100  C         69.7140   -8.9480   -3.8500 C.2   185  ASP185      0.2597
    101  O         70.8050   -9.4450   -3.5460 O.2   185  ASP185     -0.2718
    102  CB        70.2050   -6.5430   -4.3870 C.3   185  ASP185      0.1424
    103  CG        71.6920   -6.5550   -4.0600 C.2   185  ASP185      0.3668
    104  OD1       72.0660   -6.2840   -2.8870 O.co2 185  ASP185     -0.2456
    105  OD2       72.4930   -6.8350   -4.9770 O.co2 185  ASP185     -0.2456
    106  N         68.7280   -9.6080   -4.4600 N.am  186  PHE186     -0.1976
    107  CA        68.7960  -11.0120   -4.8600 C.3   186  PHE186      0.1639
    108  C         68.7960  -11.9470   -3.6770 C.2   186  PHE186      0.2290
    109  O         69.0840  -13.1180   -3.8190 O.2   186  PHE186     -0.2864
    110  CB        70.0210  -11.3000   -5.7060 C.3   186  PHE186      0.0560
    111  CG        70.0200  -10.6080   -7.0190 C.ar  186  PHE186     -0.0200
    112  CD1       70.7630   -9.4410   -7.2110 C.ar  186  PHE186     -0.0042
    113  CD2       69.3020  -11.1320   -8.0790 C.ar  186  PHE186     -0.0042
    114  CE1       70.7920   -8.7940   -8.4690 C.ar  186  PHE186     -0.0003
    115  CE2       69.3130  -10.5110   -9.3390 C.ar  186  PHE186     -0.0003
    116  CZ        70.0610   -9.3370   -9.5410 C.ar  186  PHE186     -0.0000
    117  N         62.4030   -1.1380   -5.7140 N.3   219  CYS219     -0.1221
    118  CA        63.6150   -1.6070   -5.0820 C.3   219  CYS219      0.1808
    119  C         64.6780   -0.9350   -5.9510 C.2   219  CYS219      0.2602
    120  O         64.6140    0.2830   -6.1870 O.2   219  CYS219     -0.2717
    121  CB        63.7020   -3.1430   -5.1460 C.3   219  CYS219      0.0970
    122  SG        63.1130   -3.8340   -6.6840 S.3   219  CYS219     -0.0800
    123  N         65.6330   -1.7090   -6.4610 N.am  220  SER220     -0.1938
    124  CA        66.6760   -1.1170   -7.2890 C.3   220  SER220      0.2055
    125  C         66.2950   -1.1190   -8.7650 C.2   220  SER220      0.2643
    126  O         66.3370   -0.0910   -9.4280 O.2   220  SER220     -0.2714
    127  CB        67.9880   -1.8550   -7.0780 C.3   220  SER220      0.2130
    128  OG        69.0050   -1.2000   -7.8060 O.3   220  SER220     -0.2179
    129  N         65.9150   -2.2810   -9.2730 N.am  221  ALA221     -0.1963
    130  CA        65.5150   -2.3920  -10.6650 C.3   221  ALA221      0.1728
    131  C         63.9870   -2.4550  -10.7130 C.2   221  ALA221      0.2617
    132  O         63.3570   -2.2280  -11.7670 O.2   221  ALA221     -0.2715
    133  CB        66.1280   -3.6430  -11.2810 C.3   221  ALA221      0.0334
    134  N         63.4000   -2.7630   -9.5580 N.am  222  GLY222     -0.1940
    135  CA        61.9560   -2.8440   -9.4670 C.3   222  GLY222      0.2014
    136  C         61.3470   -4.0730  -10.1110 C.2   222  GLY222      0.2639
    137  O         60.3050   -3.9770  -10.7540 O.2   222  GLY222     -0.2714
    138  N         61.9970   -5.2270   -9.9490 N.am  223  ILE223     -0.1963
    139  CA        61.4910   -6.4850  -10.5060 C.3   223  ILE223      0.1727
    140  C         61.7210   -7.6700   -9.5750 C.2   223  ILE223      0.2617
    141  O         60.8440   -8.5090   -9.4120 O.2   223  ILE223     -0.2715
    142  CB        62.1180   -6.8000  -11.8790 C.3   223  ILE223      0.0290
    143  CG1       63.6270   -6.9640  -11.7800 C.3   223  ILE223      0.0022
    144  CG2       61.8820   -5.6420  -12.8180 C.3   223  ILE223      0.0023
    145  CD1       64.3090   -7.1930  -13.1360 C.3   223  ILE223      0.0001
    146  N         62.8950   -7.7290   -8.9480 N.am  224  GLY224     -0.1940
    147  CA        63.2020   -8.8400   -8.0570 C.3   224  GLY224      0.2014
    148  C         62.4360   -8.8190   -6.7450 C.2   224  GLY224      0.2638
    149  O         61.5130   -9.5900   -6.5120 O.2   224  GLY224     -0.2714
    150  N         62.8280   -7.9200   -5.8660 N.am  225  ARG225     -0.1977
    151  CA        62.1690   -7.8040   -4.5870 C.3   225  ARG225      0.1597
    152  C         60.7090   -7.3430   -4.7030 C.2   225  ARG225      0.2287
    153  O         59.8330   -7.8580   -4.0120 O.2   225  ARG225     -0.2864
    154  CB        63.0170   -6.8840   -3.7030 C.3   225  ARG225      0.0334
    155  CG        64.2310   -7.6530   -3.2110 C.3   225  ARG225      0.0492
    156  CD        65.3280   -6.7990   -2.6990 C.3   225  ARG225      0.2205
    157  NE        65.9640   -6.0860   -3.7920 N.pl3 225  ARG225     -0.0865
    158  CZ        67.0110   -5.3000   -3.6080 C.cat 225  ARG225      0.5346
    159  NH1       67.5030   -5.1700   -2.3830 N.pl3 225  ARG225      0.1354
    160  NH2       67.5320   -4.6250   -4.6180 N.pl3 225  ARG225      0.1354
    161  N         63.6190  -12.5270   -9.1600 N.3   266  GLN266     -0.1245
    162  CA        64.8980  -12.8300   -9.7790 C.3   266  GLN266      0.1566
    163  C         65.6360  -14.0920   -9.4380 C.2   266  GLN266      0.2260
    164  O         66.5790  -14.4400  -10.1330 O.2   266  GLN266     -0.2867
    165  CB        65.8310  -11.6400   -9.5880 C.3   266  GLN266      0.0367
    166  CG        65.4570  -10.4050  -10.4490 C.3   266  GLN266      0.0905
    167  CD        65.7520  -10.5880  -11.9550 C.2   266  GLN266      0.2608
    168  OE1       66.9180  -10.6590  -12.3680 O.2   266  GLN266     -0.2717
    169  NE2       64.6930  -10.6670  -12.7700 N.am  266  GLN266     -0.0878
    170  N         63.6770  -16.5860   -4.2230 N.3   270  GLN270     -0.1245
    171  CA        62.6940  -15.5340   -3.9820 C.3   270  GLN270      0.1566
    172  C         61.3580  -16.1790   -4.3170 C.2   270  GLN270      0.2260
    173  O         60.3330  -15.8540   -3.7250 O.2   270  GLN270     -0.2867
    174  CB        62.9280  -14.3050   -4.8750 C.3   270  GLN270      0.0367
    175  CG        64.1220  -13.4550   -4.4900 C.3   270  GLN270      0.0905
    176  CD        64.3420  -12.2930   -5.4560 C.2   270  GLN270      0.2608
    177  OE1       63.9870  -12.3880   -6.6260 O.2   270  GLN270     -0.2717
    178  NE2       64.9510  -11.2010   -4.9760 N.am  270  GLN270     -0.0878
@<TRIPOS>BOND
     1     4     3    2
     2     3     2    1
     3     5     6    1
     4     5     2    1
     5     6     7    1
     6     2     1    1
     7     7     8    1
     8     8     9    1
     9    50    49    1
    10    49    51    1
    11    49    48    2
    12    47    48    1
    13    47    46    1
    14    44    43    2
    15    45    46    1
    16    45    42    1
    17    17    15   am
    18    43    42    1
    19    43    52   am
    20    42    41    1
    21    53    52    1
    22    53    56    1
    23    53    54    1
    24    56    57    1
    25    15    14    1
    26    15    16    2
    27    55    54    2
    28    54    60   am
    29    41    31   am
    30    14    11    1
    31    60    61    1
    32    62    63    2
    33    62    61    1
    34    32    31    2
    35    57    58   ar
    36    57    59   ar
    37    31    30    1
    38    10    11    1
    39    61    64    1
    40    11    12    1
    41    13    12    2
    42    12    18   am
    43    30    29    1
    44    30    33    1
    45    64    66    1
    46    64    65    1
    47    29    20   am
    48    33    34    1
    49    18    19    1
    50    20    21    2
    51    20    19    1
    52    19    22    1
    53    73    72    1
    54    34    36   ar
    55    34    35   ar
    56    36    38   ar
    57   145   143    1
    58   144   142    1
    59   169   167   am
    60    35    37   ar
    61    22    23    1
    62    72    74    1
    63    72    71    1
    64   168   167    2
    65    38    39   ar
    66   167   166    1
    67   142   143    1
    68   142   139    1
    69    71    68    1
    70   132   131    2
    71    23    24    1
    72    37    39   ar
    73   133   130    1
    74    39    40    1
    75   137   136    2
    76   131   130    1
    77   131   134   am
    78   130   129    1
    79   139   138    1
    80   139   140    1
    81   166   165    1
    82    68    67    1
    83    68    69    1
    84    24    25    1
    85   164   163    2
    86   136   138   am
    87   136   135    1
    88    69    70    2
    89   162   165    1
    90   162   163    1
    91   162   161    1
    92    27    26    1
    93   140   141    2
    94   140   146   am
    95   134   135    1
    96   116   115   ar
    97   116   114   ar
    98   126   125    2
    99   115   113   ar
   100   129   125   am
   101    25    26    2
   102    26    28    1
   103   146   147    1
   104   125   124    1
   105   114   112   ar
   106   113   111   ar
   107   147   148    1
   108   128   127    1
   109    84    83    2
   110    97    96    1
   111    80    79    1
   112   124   127    1
   113   124   123    1
   114   112   111   ar
   115   111   110    1
   116    96    95    1
   117    92    91    2
   118   148   149    2
   119   148   150   am
   120   122   121    1
   121    95    94    1
   122   177   176    2
   123   123   119   am
   124    83    89   am
   125    83    82    1
   126    90    91    1
   127    90    89    1
   128    90    93    1
   129   120   119    2
   130    85    86    1
   131    85    82    1
   132    88    86    1
   133    79    76    1
   134    86    87    1
   135   119   118    1
   136   150   151    1
   137   117   118    1
   138   110   107    1
   139    81    82    1
   140    81    77   am
   141   176   178   am
   142   176   175    1
   143    93    94    1
   144   121   118    1
   145   105   103   ar
   146    76    77    1
   147    76    75    1
   148   174   175    1
   149   174   171    1
   150   107   106    1
   151   107   108    1
   152    77    78    2
   153   152   151    1
   154   152   153    2
   155   160   158    1
   156   151   154    1
   157   106   100   am
   158   102   103    1
   159   102    99    1
   160   172   171    1
   161   172   173    2
   162   170   171    1
   163   103   104   ar
   164   100   101    2
   165   100    99    1
   166   109   108    2
   167   157   158    2
   168   157   156    1
   169   154   155    1
   170   158   159    1
   171    99    98    1
   172   155   156    1
