@<TRIPOS>MOLECULE
tmp/1lqyA00.pdb
 130 125 0 0 0
SMALL
GASTEIGER

@<TRIPOS>ATOM
      1  N         16.8950    5.5540   21.1950 N.3    57  PRO57      -0.2102
      2  CA        15.8410    4.8190   21.8990 C.3    57  PRO57       0.1504
      3  C         15.8500    4.9090   23.4220 C.2    57  PRO57       0.2576
      4  O         16.8580    4.6450   24.0780 O.2    57  PRO57      -0.2718
      5  CB        15.9820    3.3700   21.3890 C.3    57  PRO57       0.0282
      6  CG        17.3070    3.2810   20.7720 C.3    57  PRO57       0.0208
      7  CD        17.7480    4.6690   20.3780 C.3    57  PRO57       0.0893
      8  N         14.7120    5.3060   23.9630 N.am   58  GLY58      -0.1943
      9  CA        14.5710    5.3890   25.4000 C.3    58  GLY58       0.2014
     10  C         13.2230    4.7970   25.7550 C.2    58  GLY58       0.2639
     11  O         12.2410    4.9910   25.0160 O.2    58  GLY58      -0.2714
     12  N         13.1430    4.0800   26.8770 N.am   59  ILE59      -0.1963
     13  CA        11.8720    3.5160   27.2910 C.3    59  ILE59       0.1727
     14  C         11.2130    4.4020   28.3650 C.2    59  ILE59       0.2616
     15  O         10.1620    4.0660   28.9130 O.2    59  ILE59      -0.2715
     16  CB        12.0460    2.0840   27.8130 C.3    59  ILE59       0.0290
     17  CG1       13.1210    2.0230   28.8960 C.3    59  ILE59       0.0022
     18  CG2       12.4790    1.1970   26.6710 C.3    59  ILE59       0.0023
     19  CD1       13.3130    0.6120   29.4670 C.3    59  ILE59       0.0001
     20  N         11.8590    5.5310   28.6440 N.am   60  GLY60      -0.1955
     21  CA        11.2950    6.4940   29.5890 C.3    60  GLY60       0.1869
     22  C         11.9810    7.8440   29.4100 C.2    60  GLY60       0.2309
     23  O         13.0760    7.9210   28.8730 O.2    60  GLY60      -0.2863
     24  N         15.5220   16.3180   31.3750 N.3    65  GLN65      -0.1245
     25  CA        16.4820   15.8940   30.3400 C.3    65  GLN65       0.1566
     26  C         16.4560   16.7980   29.1020 C.2    65  GLN65       0.2260
     27  O         17.4150   16.8090   28.3260 O.2    65  GLN65      -0.2867
     28  CB        16.2560   14.4190   29.9440 C.3    65  GLN65       0.0367
     29  CG        16.6350   13.4670   31.0640 C.3    65  GLN65       0.0905
     30  CD        16.2740   12.0430   30.7660 C.2    65  GLN65       0.2608
     31  OE1       15.1020   11.6450   30.8530 O.2    65  GLN65      -0.2717
     32  NE2       17.2750   11.2550   30.4130 N.am   65  GLN65      -0.0878
     33  N         18.9020   -4.7290   36.7830 N.3   104  LEU104     -0.1245
     34  CA        19.1430   -5.2980   35.4440 C.3   104  LEU104      0.1561
     35  C         20.5870   -5.8050   35.4210 C.2   104  LEU104      0.2260
     36  O         21.5070   -5.0780   35.8030 O.2   104  LEU104     -0.2867
     37  CB        18.9750   -4.1910   34.3850 C.3   104  LEU104      0.0270
     38  CG        17.6690   -4.0240   33.6180 C.3   104  LEU104      0.0019
     39  CD1       16.5070   -4.5550   34.3520 C.3   104  LEU104      0.0001
     40  CD2       17.4800   -2.5490   33.3160 C.3   104  LEU104      0.0001
     41  N         22.4900   -6.1370   32.9900 N.3   106  THR106     -0.1203
     42  CA        23.2590   -5.3610   32.0110 C.3   106  THR106      0.1994
     43  C         23.6260   -3.9780   32.5380 C.2   106  THR106      0.2618
     44  O         24.4520   -3.2810   31.9310 O.2   106  THR106     -0.2717
     45  CB        22.4440   -5.0470   30.7500 C.3   106  THR106      0.1784
     46  OG1       21.2920   -4.2890   31.1300 O.3   106  THR106     -0.2211
     47  CG2       22.0320   -6.3170   30.0280 C.3   106  THR106      0.0376
     48  N         23.0300   -3.5830   33.6580 N.am  107  GLY107     -0.1942
     49  CA        23.2610   -2.2340   34.1550 C.3   107  GLY107      0.2014
     50  C         22.2600   -1.3630   33.3900 C.2   107  GLY107      0.2639
     51  O         21.4240   -1.8890   32.6380 O.2   107  GLY107     -0.2714
     52  N         22.3120   -0.0500   33.5900 N.am  108  GLU108     -0.1963
     53  CA        21.3940    0.8540   32.9270 C.3   108  GLU108      0.1733
     54  C         22.1610    1.8910   32.0920 C.2   108  GLU108      0.2617
     55  O         23.3390    2.1970   32.3470 O.2   108  GLU108     -0.2715
     56  CB        20.5060    1.6020   33.9600 C.3   108  GLU108      0.0429
     57  CG        19.6400    0.6900   34.8350 C.3   108  GLU108      0.1163
     58  CD        18.7950    1.4540   35.8730 C.2   108  GLU108      0.3649
     59  OE1       18.7590    2.7190   35.8400 O.co2 108  GLU108     -0.2457
     60  OE2       18.1510    0.7820   36.7130 O.co2 108  GLU108     -0.2457
     61  N         21.4690    2.4240   31.0880 N.am  109  GLY109     -0.1940
     62  CA        22.0570    3.4580   30.2680 C.3   109  GLY109      0.2014
     63  C         21.1530    4.6660   30.4440 C.2   109  GLY109      0.2639
     64  O         19.9760    4.5200   30.8100 O.2   109  GLY109     -0.2714
     65  N         21.6880    5.8590   30.1740 N.am  110  CYS110     -0.1953
     66  CA        20.9150    7.0940   30.3110 C.3   110  CYS110      0.1843
     67  C         21.1260    7.9370   29.0600 C.2   110  CYS110      0.2625
     68  O         22.2370    8.0650   28.5550 O.2   110  CYS110     -0.2714
     69  CB        21.3880    7.8970   31.5560 C.3   110  CYS110      0.0997
     70  SG        20.3250    9.3090   32.0190 S.3   110  CYS110     -0.0797
     71  N         20.0550    8.5250   28.5700 N.am  111  LEU111     -0.1977
     72  CA        20.1680    9.3500   27.3650 C.3   111  LEU111      0.1596
     73  C         21.1170   10.5330   27.5940 C.2   111  LEU111      0.2287
     74  O         21.7620   10.9920   26.6580 O.2   111  LEU111     -0.2864
     75  CB        18.7660    9.8320   26.9610 C.3   111  LEU111      0.0297
     76  CG        18.0460    9.1320   25.8100 C.3   111  LEU111      0.0022
     77  CD1       18.3670    7.6690   25.7830 C.3   111  LEU111      0.0001
     78  CD2       16.5520    9.3390   25.9290 C.3   111  LEU111      0.0001
     79  N         10.8170   -4.5590   35.4190 N.3   146  LEU146     -0.1245
     80  CA        11.2990   -3.5100   34.5200 C.3   146  LEU146      0.1561
     81  C         10.4160   -2.2720   34.5460 C.2   146  LEU146      0.2260
     82  O         10.9390   -1.1640   34.5520 O.2   146  LEU146     -0.2867
     83  CB        11.4470   -4.0200   33.0900 C.3   146  LEU146      0.0270
     84  CG        11.9710   -2.9670   32.0960 C.3   146  LEU146      0.0019
     85  CD1       13.3760   -2.5000   32.4590 C.3   146  LEU146      0.0001
     86  CD2       11.9990   -3.6090   30.7090 C.3   146  LEU146      0.0001
     87  N         11.3550   -0.3250   37.5710 N.3   149  ILE149     -0.1231
     88  CA        12.6870    0.2260   37.4080 C.3   149  ILE149      0.1692
     89  C         12.6320    1.5010   36.5660 C.2   149  ILE149      0.2591
     90  O         13.2560    2.5050   36.9340 O.2   149  ILE149     -0.2718
     91  CB        13.6260   -0.8170   36.7330 C.3   149  ILE149      0.0266
     92  CG1       13.8700   -1.9820   37.7090 C.3   149  ILE149      0.0019
     93  CG2       14.9910   -0.2080   36.4410 C.3   149  ILE149      0.0020
     94  CD1       14.9000   -2.9810   37.2140 C.3   149  ILE149      0.0001
     95  N         11.8870    1.4730   35.4510 N.am  150  VAL150     -0.1980
     96  CA        11.8090    2.6580   34.5980 C.3   150  VAL150      0.1595
     97  C         11.2030    3.8370   35.3580 C.2   150  VAL150      0.2287
     98  O         11.7130    4.9570   35.2810 O.2   150  VAL150     -0.2864
     99  CB        10.9720    2.4000   33.2870 C.3   150  VAL150      0.0276
    100  CG1       11.0490    3.6290   32.4020 C.3   150  VAL150      0.0022
    101  CG2       11.5300    1.1780   32.5110 C.3   150  VAL150      0.0022
    102  N         13.8010    5.2330   37.6780 N.3   153  HIS153     -0.1226
    103  CA        14.8170    5.9680   36.9350 C.3   153  HIS153      0.1752
    104  C         14.3200    7.3930   36.5530 C.2   153  HIS153      0.2595
    105  O         15.0260    8.3810   36.7480 O.2   153  HIS153     -0.2718
    106  CB        15.1740    5.1850   35.6500 C.3   153  HIS153      0.0759
    107  CG        16.2190    5.8460   34.8050 C.ar  153  HIS153      0.0818
    108  ND1       17.4880    5.3340   34.6540 N.ar  153  HIS153     -0.2268
    109  CD2       16.1680    6.9610   34.0320 C.ar  153  HIS153      0.1154
    110  CE1       18.1800    6.1050   33.8300 C.ar  153  HIS153      0.1986
    111  NE2       17.4000    7.0960   33.4360 N.ar  153  HIS153     -0.2212
    112  N         13.1160    7.4920   36.0170 N.am  154  GLU154     -0.1979
    113  CA        12.6000    8.8040   35.6020 C.3   154  GLU154      0.1602
    114  C         12.2590    9.6610   36.8240 C.2   154  GLU154      0.2287
    115  O         12.5120   10.8620   36.8420 O.2   154  GLU154     -0.2864
    116  CB        11.3400    8.6790   34.7190 C.3   154  GLU154      0.0415
    117  CG        11.4740    7.8050   33.4450 C.3   154  GLU154      0.1163
    118  CD        12.7850    8.0030   32.6920 C.2   154  GLU154      0.3649
    119  OE1       13.3480    9.1330   32.6900 O.co2 154  GLU154     -0.2457
    120  OE2       13.2560    7.0170   32.0800 O.co2 154  GLU154     -0.2457
    121  N         15.3370   11.3570   38.1550 N.3   157  HIS157     -0.1241
    122  CA        15.7450   12.5790   37.4470 C.3   157  HIS157      0.1621
    123  C         15.0760   13.8190   38.0280 C.2   157  HIS157      0.2264
    124  O         15.7060   14.8790   38.0370 O.2   157  HIS157     -0.2867
    125  CB        15.3570   12.5460   35.9690 C.3   157  HIS157      0.0745
    126  CG        16.2930   11.7570   35.1280 C.ar  157  HIS157      0.0817
    127  ND1       17.6470   11.9970   35.0970 N.ar  157  HIS157     -0.2268
    128  CD2       16.0670   10.7300   34.2740 C.ar  157  HIS157      0.1154
    129  CE1       18.2180   11.1480   34.2570 C.ar  157  HIS157      0.1986
    130  NE2       17.2780   10.3740   33.7520 N.ar  157  HIS157     -0.2212
@<TRIPOS>BOND
     1     7     6    1
     2     7     1    1
     3     6     5    1
     4     1     2    1
     5     5     2    1
     6     2     3    1
     7     3     8   am
     8     3     4    2
     9     8     9    1
    10    11    10    2
    11     9    10    1
    12    10    12   am
    13    77    76    1
    14    76    78    1
    15    76    75    1
    16    74    73    2
    17    18    16    1
    18    12    13    1
    19    75    72    1
    20    13    16    1
    21    13    14    1
    22    72    73    1
    23    72    71    1
    24    16    17    1
    25    27    26    2
    26    14    20   am
    27    14    15    2
    28    68    67    2
    29    71    67   am
    30    20    21    1
    31    23    22    2
    32    17    19    1
    33    67    66    1
    34    26    25    1
    35    22    21    1
    36    28    25    1
    37    28    29    1
    38    47    45    1
    39    65    66    1
    40    65    63   am
    41    62    63    1
    42    62    61    1
    43    66    69    1
    44    25    24    1
    45    32    30   am
    46    63    64    2
    47    86    84    1
    48    45    46    1
    49    45    42    1
    50    30    31    2
    51    30    29    1
    52    61    54   am
    53    69    70    1
    54    44    43    2
    55    42    43    1
    56    42    41    1
    57   120   118   ar
    58    54    55    2
    59    54    53    1
    60    84    85    1
    61    84    83    1
    62   100    99    1
    63   101    99    1
    64    43    48   am
    65    51    50    2
    66   119   118   ar
    67   118   117    1
    68    53    52    1
    69    53    56    1
    70    83    80    1
    71    99    96    1
    72    40    38    1
    73    50    52   am
    74    50    49    1
    75   111   110   ar
    76   111   109   ar
    77   117   116    1
    78    38    39    1
    79    38    37    1
    80    48    49    1
    81   130   129   ar
    82   130   128   ar
    83   110   108   ar
    84    56    57    1
    85   109   107   ar
    86   129   127   ar
    87   128   126   ar
    88    37    34    1
    89    80    81    1
    90    80    79    1
    91    81    82    2
    92    96    97    1
    93    96    95    1
    94   108   107   ar
    95   116   113    1
    96   107   106    1
    97    57    58    1
    98   127   126   ar
    99   126   125    1
   100    98    97    2
   101    35    34    1
   102    35    36    2
   103    34    33    1
   104    95    89   am
   105   113   112    1
   106   113   114    1
   107   106   103    1
   108    59    58   ar
   109    58    60   ar
   110   125   122    1
   111   112   104   am
   112    93    91    1
   113   104   105    2
   114   104   103    1
   115    89    90    2
   116    89    88    1
   117    91    88    1
   118    91    92    1
   119   114   115    2
   120   103   102    1
   121    94    92    1
   122    88    87    1
   123   122   123    1
   124   122   121    1
   125   123   124    2
