@<TRIPOS>MOLECULE
tmp/1lr4A00.pdb
 106 100 0 0 0
SMALL
GASTEIGER

@<TRIPOS>ATOM
      1  N         29.2270    7.1860   21.5030 N.3    47  VAL47      -0.1245
      2  CA        28.1950    8.1720   21.3330 C.3    47  VAL47       0.1561
      3  C         28.0230    8.9320   22.6340 C.2    47  VAL47       0.2260
      4  O         27.9000    8.3360   23.7130 O.2    47  VAL47      -0.2867
      5  CB        26.8720    7.5230   20.9040 C.3    47  VAL47       0.0252
      6  CG1       25.7500    8.5370   20.8030 C.3    47  VAL47       0.0019
      7  CG2       27.0640    6.7860   19.5780 C.3    47  VAL47       0.0019
      8  N         24.0210   15.3610   19.6300 N.3    60  ILE60      -0.1245
      9  CA        24.5970   14.0230   19.8090 C.3    60  ILE60       0.1561
     10  C         25.9200   13.9740   19.1070 C.2    60  ILE60       0.2260
     11  O         26.0520   14.3990   17.9460 O.2    60  ILE60      -0.2867
     12  CB        23.6550   12.8850   19.2640 C.3    60  ILE60       0.0252
     13  CG1       22.4530   12.6460   20.1900 C.3    60  ILE60       0.0019
     14  CG2       24.4460   11.6180   19.1020 C.3    60  ILE60       0.0019
     15  CD1       22.7990   12.1580   21.5880 C.3    60  ILE60       0.0001
     16  N         28.9730   11.5880   17.8680 N.3    62  LYS62      -0.1245
     17  CA        29.4130   10.2510   17.5510 C.3    62  LYS62       0.1561
     18  C         30.8650   10.2810   17.1620 C.2    62  LYS62       0.2260
     19  O         31.2110   10.7570   16.0790 O.2    62  LYS62      -0.2867
     20  CB        28.5580    9.6930   16.3890 C.3    62  LYS62       0.0271
     21  CG        28.9170    8.3050   15.9720 C.3    62  LYS62       0.0035
     22  CD        28.1440    7.8870   14.6700 C.3    62  LYS62       0.0206
     23  CE        28.1120    6.4000   14.4560 C.3    62  LYS62       0.1093
     24  NZ        27.2300    6.1160   13.2690 N.3    62  LYS62      -0.1314
     25  N         29.2060    6.9630    4.9510 N.3    75  GLU75      -0.1245
     26  CA        28.2310    7.3410    5.9690 C.3    75  GLU75       0.1567
     27  C         27.7990    8.7940    5.8320 C.2    75  GLU75       0.2260
     28  O         26.6030    9.1040    5.8860 O.2    75  GLU75      -0.2867
     29  CB        28.7310    7.0100    7.3910 C.3    75  GLU75       0.0388
     30  CG        27.7380    7.3520    8.4990 C.3    75  GLU75       0.1160
     31  CD        28.1560    6.8540    9.8680 C.2    75  GLU75       0.3649
     32  OE1       29.1410    6.0870    9.9910 O.co2  75  GLU75      -0.2457
     33  OE2       27.4680    7.1810   10.8560 O.co2  75  GLU75      -0.2457
     34  N         24.0690   10.1430    4.8320 N.3    79  LEU79      -0.1245
     35  CA        23.3830   11.0830    5.7090 C.3    79  LEU79       0.1561
     36  C         23.0150   12.4070    5.0060 C.2    79  LEU79       0.2260
     37  O         21.9370   12.9520    5.2210 O.2    79  LEU79      -0.2867
     38  CB        24.2280   11.3590    6.9440 C.3    79  LEU79       0.0270
     39  CG        24.3230   10.1860    7.9160 C.3    79  LEU79       0.0019
     40  CD1       25.5640   10.2980    8.7550 C.3    79  LEU79       0.0001
     41  CD2       23.0520   10.1090    8.7790 C.3    79  LEU79       0.0001
     42  N         17.6390   10.4610   11.1680 N.3    89  VAL89      -0.1245
     43  CA        18.4650   11.3140   12.0150 C.3    89  VAL89       0.1561
     44  C         19.1030   12.4230   11.1680 C.2    89  VAL89       0.2260
     45  O         19.5230   12.2020   10.0300 O.2    89  VAL89      -0.2867
     46  CB        19.5270   10.4780   12.7770 C.3    89  VAL89       0.0252
     47  CG1       20.5970    9.9540   11.8240 C.3    89  VAL89       0.0019
     48  CG2       20.1360   11.3250   13.9350 C.3    89  VAL89       0.0019
     49  N         24.9800   15.2220   15.4500 N.3   107  PHE107     -0.1227
     50  CA        23.6110   15.0180   15.0510 C.3   107  PHE107      0.1736
     51  C         22.6690   15.7850   15.9710 C.2   107  PHE107      0.2595
     52  O         23.0230   16.1210   17.1120 O.2   107  PHE107     -0.2718
     53  CB        23.2510   13.5320   15.2020 C.3   107  PHE107      0.0547
     54  CG        24.0400   12.5910   14.3280 C.ar  107  PHE107     -0.0202
     55  CD1       23.6340   12.2970   13.0480 C.ar  107  PHE107     -0.0042
     56  CD2       25.1760   11.9820   14.8040 C.ar  107  PHE107     -0.0042
     57  CE1       24.3390   11.3850   12.2630 C.ar  107  PHE107     -0.0003
     58  CE2       25.8700   11.0870   14.0340 C.ar  107  PHE107     -0.0003
     59  CZ        25.4470   10.7830   12.7580 C.ar  107  PHE107     -0.0000
     60  N         21.4660   16.0620   15.4770 N.am  108  GLU108     -0.1979
     61  CA        20.4030   16.5990   16.3080 C.3   108  GLU108      0.1602
     62  C         20.3270   15.7250   17.5450 C.2   108  GLU108      0.2287
     63  O         20.6640   14.5460   17.4760 O.2   108  GLU108     -0.2864
     64  CB        19.0560   16.5200   15.5650 C.3   108  GLU108      0.0415
     65  CG        18.5130   15.0910   15.4440 C.3   108  GLU108      0.1163
     66  CD        17.2220   14.9420   14.6080 C.2   108  GLU108      0.3649
     67  OE1       16.2220   15.6150   14.8970 O.co2 108  GLU108     -0.2457
     68  OE2       17.2050   14.1480   13.6500 O.co2 108  GLU108     -0.2457
     69  N         15.9660    4.9040   17.6310 N.3   157  MET157     -0.1245
     70  CA        15.8270    5.6900   18.8480 C.3   157  MET157      0.1570
     71  C         14.4100    6.2310   19.0270 C.2   157  MET157      0.2261
     72  O         13.8300    6.7850   18.0970 O.2   157  MET157     -0.2867
     73  CB        16.8700    6.7760   18.8940 C.3   157  MET157      0.0387
     74  CG        18.1830    6.2640   19.4430 C.3   157  MET157      0.0595
     75  SD        19.1900    7.5940   20.1190 S.3   157  MET157     -0.1393
     76  CE        19.2960    8.5630   18.7440 C.3   157  MET157      0.0692
     77  N         18.7160    5.5590   13.1740 N.3   168  ILE168     -0.1231
     78  CA        20.0980    6.0060   13.2870 C.3   168  ILE168      0.1692
     79  C         21.1210    4.9700   12.7860 C.2   168  ILE168      0.2592
     80  O         20.7540    3.8960   12.3610 O.2   168  ILE168     -0.2718
     81  CB        20.3860    6.3440   14.7470 C.3   168  ILE168      0.0266
     82  CG1       20.3760    5.0630   15.6010 C.3   168  ILE168      0.0019
     83  CG2       19.3570    7.3600   15.2440 C.3   168  ILE168      0.0020
     84  CD1       21.1700    5.1890   16.8690 C.3   168  ILE168      0.0001
     85  N         22.3960    5.3610   12.8320 N.am  169  ASP169     -0.1960
     86  CA        23.5450    4.5400   12.4770 C.3   169  ASP169      0.1840
     87  C         23.5190    3.9630   11.0610 C.2   169  ASP169      0.2622
     88  O         23.2630    2.7660   10.8200 O.2   169  ASP169     -0.2715
     89  CB        23.7880    3.4540   13.4850 C.3   169  ASP169      0.1450
     90  CG        25.2410    3.0500   13.5200 C.2   169  ASP169      0.3671
     91  OD1       25.9840    3.4260   12.5470 O.co2 169  ASP169     -0.2456
     92  OD2       25.7200    2.3720   14.4460 O.co2 169  ASP169     -0.2456
     93  N         23.8290    4.8640   10.1550 N.am  170  TRP170     -0.1974
     94  CA        23.8940    4.6520    8.7380 C.3   170  TRP170      0.1640
     95  C         25.2890    4.2250    8.3110 C.2   170  TRP170      0.2290
     96  O         25.6030    4.2730    7.1600 O.2   170  TRP170     -0.2864
     97  CB        23.4460    5.9330    8.0370 C.3   170  TRP170      0.0576
     98  CG        21.9980    6.2080    8.3510 C.ar  170  TRP170      0.0006
     99  CD1       21.5040    6.8300    9.4580 C.ar  170  TRP170      0.0946
    100  CD2       20.8640    5.7360    7.6260 C.ar  170  TRP170      0.0152
    101  NE1       20.1320    6.8280    9.4330 N.ar  170  TRP170     -0.2442
    102  CE2       19.7150    6.1770    8.3050 C.ar  170  TRP170      0.0810
    103  CE3       20.6980    5.0530    6.4080 C.ar  170  TRP170      0.0012
    104  CZ2       18.4210    5.9100    7.8430 C.ar  170  TRP170      0.0191
    105  CZ3       19.4150    4.7830    5.9600 C.ar  170  TRP170      0.0001
    106  CH2       18.3030    5.2220    6.6660 C.ar  170  TRP170      0.0015
@<TRIPOS>BOND
     1    34    35    1
     2    25    26    1
     3    36    37    2
     4    36    35    1
     5    35    38    1
     6    27    28    2
     7    27    26    1
     8   105   103   ar
     9   105   106   ar
    10    26    29    1
    11   103   100   ar
    12   106   104   ar
    13    38    39    1
    14    96    95    2
    15    29    30    1
    16   100   102   ar
    17   100    98   ar
    18   104   102   ar
    19    39    40    1
    20    39    41    1
    21    97    98    1
    22    97    94    1
    23   102   101   ar
    24    95    94    1
    25    98    99   ar
    26    30    31    1
    27    94    93    1
    28   101    99   ar
    29    31    32   ar
    30    31    33   ar
    31    45    44    2
    32    93    87   am
    33    88    87    2
    34    87    86    1
    35    44    43    1
    36    42    43    1
    37    47    46    1
    38    43    46    1
    39    57    59   ar
    40    57    55   ar
    41    80    79    2
    42    86    85    1
    43    86    89    1
    44    91    90   ar
    45    59    58   ar
    46    46    48    1
    47    79    85   am
    48    79    78    1
    49    55    54   ar
    50    77    78    1
    51    24    23    1
    52    78    81    1
    53    89    90    1
    54    90    92   ar
    55    68    66   ar
    56    58    56   ar
    57    54    56   ar
    58    54    53    1
    59    23    22    1
    60    66    67   ar
    61    66    65    1
    62    22    21    1
    63    81    83    1
    64    81    82    1
    65    50    53    1
    66    50    49    1
    67    50    51    1
    68    65    64    1
    69    60    51   am
    70    60    61    1
    71    64    61    1
    72    82    84    1
    73    51    52    2
    74    21    20    1
    75    19    18    2
    76    61    62    1
    77    20    17    1
    78    18    17    1
    79    63    62    2
    80    17    16    1
    81    69    70    1
    82    11    10    2
    83    72    71    2
    84    76    75    1
    85    70    73    1
    86    70    71    1
    87    73    74    1
    88    14    12    1
    89    10     9    1
    90    12     9    1
    91    12    13    1
    92    74    75    1
    93     7     5    1
    94     8     9    1
    95    13    15    1
    96     6     5    1
    97     5     2    1
    98     2     1    1
    99     2     3    1
   100     3     4    2
