@<TRIPOS>MOLECULE
tmp/1lrhA01.pdb
 162 157 0 0 0
SMALL
GASTEIGER

@<TRIPOS>ATOM
      1  N          2.6680   64.2110   62.8880 N.3    22  ILE22      -0.1245
      2  CA         2.5650   62.7970   63.2250 C.3    22  ILE22       0.1561
      3  C          1.9230   62.6890   64.6130 C.2    22  ILE22       0.2260
      4  O          2.5200   62.9850   65.6520 O.2    22  ILE22      -0.2867
      5  CB         3.9340   62.1330   63.1530 C.3    22  ILE22       0.0252
      6  CG1        4.4910   62.2590   61.7120 C.3    22  ILE22       0.0019
      7  CG2        3.9290   60.6650   63.5570 C.3    22  ILE22       0.0019
      8  CD1        5.8930   61.6600   61.5540 C.3    22  ILE22       0.0001
      9  N          3.3850   61.8650   68.2950 N.3    25  LEU25      -0.1245
     10  CA         4.8380   61.9540   68.2780 C.3    25  LEU25       0.1561
     11  C          5.3020   63.2720   68.8870 C.2    25  LEU25       0.2260
     12  O          4.7210   64.3470   68.6900 O.2    25  LEU25      -0.2867
     13  CB         5.4380   61.8860   66.8550 C.3    25  LEU25       0.0270
     14  CG         6.9640   62.1180   66.7090 C.3    25  LEU25       0.0019
     15  CD1        7.7460   61.0070   67.3940 C.3    25  LEU25       0.0001
     16  CD2        7.3630   62.2200   65.2360 C.3    25  LEU25       0.0001
     17  N         18.4070   61.3880   67.4970 N.3    44  TRP44      -0.1241
     18  CA        17.0930   61.9910   67.7600 C.3    44  TRP44       0.1605
     19  C         16.5970   61.6240   69.1580 C.2    44  TRP44       0.2264
     20  O         16.9540   60.5650   69.6960 O.2    44  TRP44      -0.2867
     21  CB        16.0380   61.4210   66.7880 C.3    44  TRP44       0.0550
     22  CG        16.3500   61.4870   65.3400 C.ar   44  TRP44       0.0003
     23  CD1       16.9920   62.5170   64.6890 C.ar   44  TRP44       0.0946
     24  CD2       16.0240   60.5110   64.3420 C.ar   44  TRP44       0.0152
     25  NE1       17.0950   62.1970   63.3500 N.ar   44  TRP44      -0.2442
     26  CE2       16.5120   60.9850   63.1120 C.ar   44  TRP44       0.0810
     27  CE3       15.3830   59.2620   64.3690 C.ar   44  TRP44       0.0012
     28  CZ2       16.4240   60.2490   61.9330 C.ar   44  TRP44       0.0191
     29  CZ3       15.2790   58.5590   63.1870 C.ar   44  TRP44       0.0001
     30  CH2       15.7830   59.0580   61.9850 C.ar   44  TRP44       0.0015
     31  N         12.8420   60.9360   70.8730 N.3    46  GLN46      -0.1245
     32  CA        11.4560   60.8330   70.4300 C.3    46  GLN46       0.1566
     33  C         10.5300   60.3490   71.5190 C.2    46  GLN46       0.2260
     34  O         10.8760   59.2880   72.0890 O.2    46  GLN46      -0.2867
     35  CB        11.3580   59.9090   69.2130 C.3    46  GLN46       0.0367
     36  CG        12.0230   60.5080   67.9600 C.3    46  GLN46       0.0905
     37  CD        11.9720   59.6440   66.7260 C.2    46  GLN46       0.2608
     38  OE1       12.0760   58.4130   66.8650 O.2    46  GLN46      -0.2717
     39  NE2       11.8400   60.2210   65.5320 N.am   46  GLN46      -0.0878
     40  N          6.7180   58.6390   72.1100 N.3    48  ILE48      -0.1245
     41  CA         5.4840   58.2240   71.4560 C.3    48  ILE48       0.1561
     42  C          4.3910   57.9690   72.4950 C.2    48  ILE48       0.2260
     43  O          4.6670   57.2630   73.4810 O.2    48  ILE48      -0.2867
     44  CB         5.7600   56.8520   70.7190 C.3    48  ILE48       0.0252
     45  CG1        6.9740   57.0560   69.7910 C.3    48  ILE48       0.0019
     46  CG2        4.5070   56.4870   69.9500 C.3    48  ILE48       0.0019
     47  CD1        7.4680   55.7870   69.0870 C.3    48  ILE48       0.0001
     48  N          1.9950   54.3260   67.0090 N.3    53  ARG53      -0.1227
     49  CA         2.9950   53.5010   66.3030 C.3    53  ARG53       0.1737
     50  C          3.7310   54.3000   65.2460 C.2    53  ARG53       0.2596
     51  O          3.0640   55.1340   64.6080 O.2    53  ARG53      -0.2718
     52  CB         2.2770   52.4090   65.4610 C.3    53  ARG53       0.0576
     53  CG         1.4760   51.3290   66.1060 C.2    53  ARG53       0.0160
     54  CD         0.6640   50.3630   65.2750 C.2    53  ARG53       0.1886
     55  NE        -0.1210   49.3850   66.0170 N.pl3  53  ARG53      -0.0578
     56  CZ         0.1750   48.1350   66.3100 C.cat  53  ARG53       0.5393
     57  NH1        1.3400   47.5980   65.9270 N.pl3  53  ARG53       0.1358
     58  NH2       -0.6600   47.3460   66.9980 N.pl3  53  ARG53       0.1358
     59  N          4.9530   53.9820   64.8920 N.am   54  THR54      -0.1939
     60  CA         5.5840   54.6800   63.7640 C.3    54  THR54       0.2013
     61  C          4.9510   54.0470   62.5200 C.2    54  THR54       0.2484
     62  O          4.3140   52.9910   62.6060 O.2    54  THR54      -0.2729
     63  CB         7.0970   54.3960   63.6780 C.3    54  THR54       0.1807
     64  OG1        7.3600   53.0210   63.2930 O.3    54  THR54      -0.2208
     65  CG2        7.7810   54.5930   65.0180 C.3    54  THR54       0.0379
     66  N          5.1040   54.6620   61.3650 N.am   55  PRO55      -0.2726
     67  CA         4.7040   53.9870   60.1490 C.3    55  PRO55       0.1402
     68  C          5.6610   52.7900   60.0120 C.2    55  PRO55       0.2269
     69  O          6.7470   52.6440   60.6360 O.2    55  PRO55      -0.2865
     70  CB         4.9470   55.0190   59.0250 C.3    55  PRO55       0.0296
     71  CG         5.9160   55.9790   59.5880 C.3    55  PRO55       0.0237
     72  CD         5.7580   55.9620   61.1110 C.3    55  PRO55       0.0939
     73  N          8.3930   51.1430   57.9730 N.3    57  HIS57      -0.1241
     74  CA         9.3290   51.7140   56.9900 C.3    57  HIS57       0.1621
     75  C         10.6790   51.0210   56.9410 C.2    57  HIS57       0.2264
     76  O         10.9360   50.1140   57.7720 O.2    57  HIS57      -0.2867
     77  CB         9.6670   53.2010   57.3830 C.3    57  HIS57       0.0745
     78  CG        10.2720   53.3060   58.7570 C.ar   57  HIS57       0.0817
     79  ND1        9.5140   53.1970   59.9020 N.ar   57  HIS57      -0.2268
     80  CD2       11.5380   53.5660   59.1570 C.ar   57  HIS57       0.1154
     81  CE1       10.2730   53.3090   60.9700 C.ar   57  HIS57       0.1986
     82  NE2       11.4890   53.5590   60.5320 N.ar   57  HIS57      -0.2212
     83  N         15.1970   51.9420   56.0130 N.3    59  HIS59      -0.1241
     84  CA        16.1410   52.9880   55.6250 C.3    59  HIS59       0.1621
     85  C         17.5400   52.3860   55.4910 C.2    59  HIS59       0.2264
     86  O         17.9070   51.5430   56.3400 O.2    59  HIS59      -0.2867
     87  CB        16.2340   54.1780   56.5800 C.3    59  HIS59       0.0745
     88  CG        15.9950   53.7150   58.0040 C.ar   59  HIS59       0.0817
     89  ND1       16.6860   52.7330   58.5920 N.ar   59  HIS59      -0.2268
     90  CD2       15.0370   54.1160   58.8830 C.ar   59  HIS59       0.1154
     91  CE1       16.2190   52.5240   59.8320 C.ar   59  HIS59       0.1986
     92  NE2       15.2080   53.3490   60.0110 N.ar   59  HIS59      -0.2212
     93  N         20.6820   51.7870   62.5880 N.3    63  GLU63      -0.1245
     94  CA        19.7840   52.4920   63.4600 C.3    63  GLU63       0.1567
     95  C         19.7210   51.8220   64.8410 C.2    63  GLU63       0.2260
     96  O         19.3290   50.6460   64.9420 O.2    63  GLU63      -0.2867
     97  CB        18.3830   52.6190   62.8310 C.3    63  GLU63       0.0388
     98  CG        17.4870   53.3380   63.8410 C.3    63  GLU63       0.1160
     99  CD        16.1040   53.6490   63.2970 C.2    63  GLU63       0.3649
    100  OE1       15.3780   52.6740   63.0510 O.co2  63  GLU63      -0.2457
    101  OE2       15.7980   54.8510   63.1460 O.co2  63  GLU63      -0.2457
    102  N         18.2960   52.1350   68.8560 N.3    65  PHE65      -0.1241
    103  CA        17.3650   52.7230   69.8030 C.3    65  PHE65       0.1605
    104  C         17.7370   52.4470   71.2600 C.2    65  PHE65       0.2264
    105  O         18.0090   51.2570   71.5520 O.2    65  PHE65      -0.2867
    106  CB        15.9970   52.0040   69.7040 C.3    65  PHE65       0.0534
    107  CG        15.1870   52.3510   68.5050 C.ar   65  PHE65      -0.0203
    108  CD1       15.4750   51.7610   67.2740 C.ar   65  PHE65      -0.0042
    109  CD2       14.1810   53.3030   68.6050 C.ar   65  PHE65      -0.0042
    110  CE1       14.7270   52.0880   66.1610 C.ar   65  PHE65      -0.0003
    111  CE2       13.4190   53.6130   67.4800 C.ar   65  PHE65      -0.0003
    112  CZ        13.6780   53.0250   66.2600 C.ar   65  PHE65      -0.0000
    113  N         10.4750   47.7100   59.4380 N.3   106  HIS106     -0.1241
    114  CA        10.1130   47.6430   60.8320 C.3   106  HIS106      0.1621
    115  C          9.1060   48.6970   61.2650 C.2   106  HIS106      0.2264
    116  O          8.8670   49.6690   60.5330 O.2   106  HIS106     -0.2867
    117  CB        11.4240   47.7220   61.6870 C.3   106  HIS106      0.0745
    118  CG        12.1810   48.9960   61.4340 C.ar  106  HIS106      0.0817
    119  ND1       12.8570   49.2010   60.2630 N.ar  106  HIS106     -0.2268
    120  CD2       12.3780   50.1160   62.1600 C.ar  106  HIS106      0.1154
    121  CE1       13.4260   50.4050   60.2210 C.ar  106  HIS106      0.1986
    122  NE2       13.1690   50.9430   61.3720 N.ar  106  HIS106     -0.2212
    123  N          7.7670   50.6420   65.2440 N.3   108  VAL108     -0.1245
    124  CA         7.8650   50.6950   66.7110 C.3   108  VAL108      0.1561
    125  C          6.4990   51.0860   67.2510 C.2   108  VAL108      0.2260
    126  O          5.8340   52.0300   66.8230 O.2   108  VAL108     -0.2867
    127  CB         8.9260   51.6770   67.2400 C.3   108  VAL108      0.0252
    128  CG1        8.9300   51.6450   68.7720 C.3   108  VAL108      0.0019
    129  CG2       10.3100   51.3290   66.6860 C.3   108  VAL108      0.0019
    130  N         14.0460   57.6430   54.2420 N.3   130  ILE130     -0.1245
    131  CA        13.0450   56.6910   54.7470 C.3   130  ILE130      0.1561
    132  C         12.0190   56.3000   53.6660 C.2   130  ILE130      0.2260
    133  O         11.5050   57.2020   53.0070 O.2   130  ILE130     -0.2867
    134  CB        12.3570   57.3220   55.9640 C.3   130  ILE130      0.0252
    135  CG1       13.3520   57.5550   57.1350 C.3   130  ILE130      0.0019
    136  CG2       11.2470   56.4060   56.4870 C.3   130  ILE130      0.0019
    137  CD1       12.6940   58.3190   58.2710 C.3   130  ILE130      0.0001
    138  N         12.6590   63.8010   55.0720 N.3   149  PHE149     -0.1241
    139  CA        11.6030   63.3740   55.9960 C.3   149  PHE149      0.1605
    140  C         10.9830   64.5890   56.6980 C.2   149  PHE149      0.2264
    141  O         11.5210   65.6980   56.5680 O.2   149  PHE149     -0.2867
    142  CB        12.0680   62.3200   56.9990 C.3   149  PHE149      0.0534
    143  CG        10.9360   61.4260   57.4430 C.ar  149  PHE149     -0.0203
    144  CD1       10.2710   60.6340   56.5060 C.ar  149  PHE149     -0.0042
    145  CD2       10.5440   61.3530   58.7720 C.ar  149  PHE149     -0.0042
    146  CE1        9.2340   59.7920   56.8820 C.ar  149  PHE149     -0.0003
    147  CE2        9.5050   60.4950   59.1540 C.ar  149  PHE149     -0.0003
    148  CZ         8.8720   59.7120   58.1970 C.ar  149  PHE149     -0.0000
    149  N         10.9520   65.8790   59.7720 N.3   151  TRP151     -0.1241
    150  CA        11.7800   66.6850   60.6610 C.3   151  TRP151      0.1605
    151  C         12.9490   67.3570   59.9580 C.2   151  TRP151      0.2264
    152  O         13.6840   68.1470   60.6060 O.2   151  TRP151     -0.2867
    153  CB        12.2720   65.8720   61.8930 C.3   151  TRP151      0.0550
    154  CG        12.8010   64.5150   61.5600 C.ar  151  TRP151      0.0003
    155  CD1       14.0130   64.2690   60.9430 C.ar  151  TRP151      0.0946
    156  CD2       12.1860   63.2320   61.7650 C.ar  151  TRP151      0.0152
    157  NE1       14.2020   62.9030   60.7900 N.ar  151  TRP151     -0.2442
    158  CE2       13.0830   62.2610   61.2930 C.ar  151  TRP151      0.0810
    159  CE3       10.9890   62.8170   62.3710 C.ar  151  TRP151      0.0012
    160  CZ2       12.8120   60.8820   61.3690 C.ar  151  TRP151      0.0191
    161  CZ3       10.7350   61.4530   62.4410 C.ar  151  TRP151      0.0001
    162  CH2       11.6180   60.5150   61.9210 C.ar  151  TRP151      0.0015
@<TRIPOS>BOND
     1   133   132    2
     2   132   131    1
     3   130   131    1
     4   131   134    1
     5   138   139    1
     6    85    84    1
     7    85    86    2
     8    84    83    1
     9    84    87    1
    10   134   136    1
    11   134   135    1
    12   139   140    1
    13   139   142    1
    14   144   146   ar
    15   144   143   ar
    16   141   140    2
    17    87    88    1
    18   146   148   ar
    19    75    74    1
    20    75    76    2
    21    74    77    1
    22    74    73    1
    23   142   143    1
    24   135   137    1
    25    77    78    1
    26   143   145   ar
    27    88    89   ar
    28    88    90   ar
    29   148   147   ar
    30    89    91   ar
    31    78    80   ar
    32    78    79   ar
    33   145   147   ar
    34    90    92   ar
    35    70    71    1
    36    70    67    1
    37    80    82   ar
    38   113   114    1
    39    71    72    1
    40   149   150    1
    41    91    92   ar
    42    79    81   ar
    43   151   152    2
    44   151   150    1
    45    68    67    1
    46    68    69    2
    47    67    66    1
    48   121   119   ar
    49   121   122   ar
    50   119   118   ar
    51    82    81   ar
    52   116   115    2
    53   150   153    1
    54   157   155   ar
    55   157   158   ar
    56   114   115    1
    57   114   117    1
    58   155   154   ar
    59    72    66    1
    60   158   160   ar
    61   158   156   ar
    62    66    61   am
    63   160   162   ar
    64   122   120   ar
    65   118   117    1
    66   118   120   ar
    67     8     6    1
    68   154   156   ar
    69   154   153    1
    70     6     5    1
    71   156   159   ar
    72   162   161   ar
    73    28    30   ar
    74    28    26   ar
    75    30    29   ar
    76   159   161   ar
    77    61    62    2
    78    61    60    1
    79    93    94    1
    80    97    94    1
    81    97    98    1
    82     1     2    1
    83   100    99   ar
    84    26    25   ar
    85    26    24   ar
    86   101    99   ar
    87     5     2    1
    88     5     7    1
    89    29    27   ar
    90     2     3    1
    91    64    63    1
    92    99    98    1
    93    25    23   ar
    94    94    95    1
    95    63    60    1
    96    63    65    1
    97    60    59    1
    98    24    27   ar
    99    24    22   ar
   100    51    50    2
   101     3     4    2
   102    23    22   ar
   103    95    96    2
   104    59    50   am
   105    16    14    1
   106   123   124    1
   107    50    49    1
   108    54    55    1
   109    54    53    2
   110    22    21    1
   111    52    53    1
   112    52    49    1
   113    39    37   am
   114    57    56    1
   115    55    56    2
   116   110   112   ar
   117   110   108   ar
   118   112   111   ar
   119    49    48    1
   120    56    58    1
   121   129   127    1
   122    14    13    1
   123    14    15    1
   124   124   127    1
   125   124   125    1
   126    37    38    2
   127    37    36    1
   128    21    18    1
   129   126   125    2
   130    13    10    1
   131   127   128    1
   132   108   107   ar
   133   111   109   ar
   134    17    18    1
   135    18    19    1
   136    36    35    1
   137    10     9    1
   138    10    11    1
   139   107   109   ar
   140   107   106    1
   141    12    11    2
   142   102   103    1
   143    47    45    1
   144    19    20    2
   145    35    32    1
   146   106   103    1
   147    45    44    1
   148   103   104    1
   149    46    44    1
   150    32    31    1
   151    32    33    1
   152    44    41    1
   153   104   105    2
   154    41    40    1
   155    41    42    1
   156    33    34    2
   157    42    43    2
