@<TRIPOS>MOLECULE
tmp/1lrhA00.pdb
 151 143 0 0 0
SMALL
GASTEIGER

@<TRIPOS>ATOM
      1  N         19.2140   70.4400   75.4710 N.3    12  ILE12      -0.1231
      2  CA        18.2160   69.6760   74.7200 C.3    12  ILE12       0.1692
      3  C         16.7820   70.1290   75.0090 C.2    12  ILE12       0.2592
      4  O         16.0040   70.1550   74.0430 O.2    12  ILE12      -0.2718
      5  CB        18.3600   68.1680   75.0360 C.3    12  ILE12       0.0266
      6  CG1       19.6560   67.5630   74.4790 C.3    12  ILE12       0.0019
      7  CG2       17.1640   67.3880   74.5330 C.3    12  ILE12       0.0020
      8  CD1       19.8980   66.1230   74.9210 C.3    12  ILE12       0.0001
      9  N         16.4580   70.5620   76.2290 N.am   13  SER13      -0.1952
     10  CA        15.1340   71.0650   76.5680 C.3    13  SER13       0.1924
     11  C         14.8430   72.4010   75.8850 C.2    13  SER13       0.2314
     12  O         13.6710   72.8140   75.9550 O.2    13  SER13      -0.2863
     13  CB        14.8720   71.2420   78.0680 C.3    13  SER13       0.2116
     14  OG        15.6990   72.2300   78.6810 O.3    13  SER13      -0.2180
     15  N         10.6860   71.0180   69.9800 N.3    17  GLN17      -0.1182
     16  CA        10.1390   69.7220   69.6430 C.3    17  GLN17       0.1914
     17  C          8.8690   69.9760   68.8440 C.2    17  GLN17       0.2635
     18  O          8.3090   71.0740   68.9720 O.2    17  GLN17      -0.2714
     19  CB         9.8960   68.8360   70.8690 C.2    17  GLN17       0.0065
     20  CG         8.8810   69.3210   71.8660 C.2    17  GLN17       0.0585
     21  CD         8.7940   68.6830   73.2340 C.2    17  GLN17       0.2840
     22  OE1        9.7090   68.0480   73.7540 O.2    17  GLN17      -0.2667
     23  NE2        7.6160   68.9010   73.8390 N.am   17  GLN17      -0.0837
     24  N          8.4510   68.9670   68.1110 N.am   18  SER18      -0.1935
     25  CA         7.1920   69.0410   67.3670 C.3    18  SER18       0.2055
     26  C          6.7690   67.6330   67.0370 C.2    18  SER18       0.2643
     27  O          7.5960   66.6960   67.0290 O.2    18  SER18      -0.2714
     28  CB         7.3230   69.8720   66.0940 C.3    18  SER18       0.2130
     29  OG         6.1870   69.7220   65.2330 O.3    18  SER18      -0.2179
     30  N          5.4980   67.4750   66.6700 N.am   19  SER19      -0.1949
     31  CA         5.0040   66.2180   66.1860 C.3    19  SER19       0.1924
     32  C          5.3110   66.1580   64.6820 C.2    19  SER19       0.2314
     33  O          5.2210   65.0820   64.1210 O.2    19  SER19      -0.2863
     34  CB         3.4610   66.0890   66.2960 C.3    19  SER19       0.2116
     35  OG         2.8600   67.1230   65.5240 O.3    19  SER19      -0.2180
     36  N          0.6790   62.2100   64.6180 N.3    23  GLU23      -0.1231
     37  CA        -0.0860   62.1710   65.8730 C.3    23  GLU23       0.1699
     38  C          0.5330   61.3180   66.9620 C.2    23  GLU23       0.2593
     39  O          0.9470   60.1780   66.7630 O.2    23  GLU23      -0.2718
     40  CB        -1.5420   61.7790   65.5680 C.3    23  GLU23       0.0402
     41  CG        -2.1590   62.6930   64.5140 C.3    23  GLU23       0.1161
     42  CD        -2.2450   64.1440   64.9190 C.2    23  GLU23       0.3649
     43  OE1       -2.5980   64.4420   66.0870 O.co2  23  GLU23      -0.2457
     44  OE2       -1.9520   65.0470   64.0840 O.co2  23  GLU23      -0.2457
     45  N          0.6520   61.9260   68.1370 N.am   24  GLY24      -0.1942
     46  CA         1.2070   61.2380   69.3180 C.3    24  GLY24       0.2014
     47  C          2.7490   61.2720   69.3130 C.2    24  GLY24       0.2639
     48  O          3.3080   60.7300   70.2880 O.2    24  GLY24      -0.2714
     49  N          3.3850   61.8650   68.2950 N.am   25  LEU25      -0.1963
     50  CA         4.8380   61.9540   68.2780 C.3    25  LEU25       0.1728
     51  C          5.3020   63.2720   68.8870 C.2    25  LEU25       0.2617
     52  O          4.7210   64.3470   68.6900 O.2    25  LEU25      -0.2715
     53  CB         5.4380   61.8860   66.8550 C.3    25  LEU25       0.0311
     54  CG         6.9640   62.1180   66.7090 C.3    25  LEU25       0.0022
     55  CD1        7.7460   61.0070   67.3940 C.3    25  LEU25       0.0001
     56  CD2        7.3630   62.2200   65.2360 C.3    25  LEU25       0.0001
     57  N          6.4760   63.2320   69.5180 N.am   26  SER26      -0.1936
     58  CA         7.1600   64.4730   69.9090 C.3    26  SER26       0.2055
     59  C          8.6290   64.2520   69.5300 C.2    26  SER26       0.2643
     60  O          9.1850   63.3490   70.1580 O.2    26  SER26      -0.2714
     61  CB         7.0150   64.6390   71.4170 C.3    26  SER26       0.2130
     62  OG         7.4120   65.9410   71.8220 O.3    26  SER26      -0.2179
     63  N          9.2130   64.9770   68.5950 N.am   27  HIS27      -0.1959
     64  CA        10.5810   64.7190   68.1480 C.3    27  HIS27       0.1787
     65  C         11.5260   65.9040   68.3150 C.2    27  HIS27       0.2620
     66  O         11.1170   67.0400   68.0230 O.2    27  HIS27      -0.2715
     67  CB        10.4840   64.5190   66.5970 C.3    27  HIS27       0.0785
     68  CG        11.8270   64.2730   65.9530 C.ar   27  HIS27       0.0821
     69  ND1       12.6810   65.2970   65.5410 N.ar   27  HIS27      -0.2267
     70  CD2       12.4450   63.1130   65.6710 C.ar   27  HIS27       0.1154
     71  CE1       13.7630   64.7380   65.0080 C.ar   27  HIS27       0.1986
     72  NE2       13.6300   63.4230   65.0800 N.ar   27  HIS27      -0.2212
     73  N         12.7630   65.6500   68.6970 N.am   28  ILE28      -0.1977
     74  CA        13.8260   66.6390   68.7240 C.3    28  ILE28       0.1596
     75  C         15.0700   66.0030   68.0640 C.2    28  ILE28       0.2287
     76  O         15.4140   64.8660   68.4550 O.2    28  ILE28      -0.2864
     77  CB        14.2750   66.9650   70.1490 C.3    28  ILE28       0.0276
     78  CG1       13.2330   67.8100   70.9220 C.3    28  ILE28       0.0022
     79  CG2       15.4880   67.9300   70.0990 C.3    28  ILE28       0.0022
     80  CD1       13.4610   67.9670   72.4120 C.3    28  ILE28       0.0001
     81  N         15.6650   62.4130   69.7110 N.3    45  LEU45      -0.1245
     82  CA        15.0470   62.0370   71.0010 C.3    45  LEU45       0.1561
     83  C         13.5610   62.0090   70.6510 C.2    45  LEU45       0.2260
     84  O         13.1160   62.9950   70.0140 O.2    45  LEU45      -0.2867
     85  CB        15.2510   63.1330   72.0760 C.3    45  LEU45       0.0270
     86  CG        14.5820   62.8110   73.4250 C.3    45  LEU45       0.0019
     87  CD1       15.0330   61.5270   74.1040 C.3    45  LEU45       0.0001
     88  CD2       14.7950   63.9860   74.4040 C.3    45  LEU45       0.0001
     89  N          9.3530   60.9130   71.7190 N.3    47  THR47      -0.1274
     90  CA         8.4480   60.3090   72.7010 C.3    47  THR47       0.1548
     91  C          7.1720   59.8670   71.9710 C.3    47  THR47       0.2036
     92  O          6.5860   60.7700   71.3420 O.3    47  THR47      -0.2187
     93  CB         8.0270   61.3090   73.7810 C.3    47  THR47       0.1721
     94  OG1        9.1540   61.4040   74.7110 O.3    47  THR47      -0.2215
     95  CG2        6.8120   60.8000   74.5870 C.3    47  THR47       0.0371
     96  N          3.1990   58.4950   72.3270 N.3    49  SER49      -0.1203
     97  CA         2.0860   58.3890   73.2640 C.3    49  SER49       0.2005
     98  C          1.4840   57.0090   73.3020 C.2    49  SER49       0.2460
     99  O          1.6540   56.2430   72.3470 O.2    49  SER49      -0.2732
    100  CB         1.0460   59.4860   72.8620 C.3    49  SER49       0.2103
    101  OG         0.5110   59.2060   71.5880 O.3    49  SER49      -0.2182
    102  N          0.7110   56.6410   74.3330 N.am   50  PRO50      -0.2728
    103  CA         0.1940   55.2970   74.5290 C.3    50  PRO50       0.1401
    104  C         -0.6530   54.8100   73.3820 C.2    50  PRO50       0.2269
    105  O         -1.5290   55.5500   72.9310 O.2    50  PRO50      -0.2865
    106  CB        -0.6210   55.4170   75.8350 C.3    50  PRO50       0.0296
    107  CG         0.1520   56.4350   76.6100 C.3    50  PRO50       0.0237
    108  CD         0.5140   57.4780   75.5410 C.3    50  PRO50       0.0939
    109  N          0.2010   54.4700   70.1950 N.3    52  GLN52      -0.1245
    110  CA         0.6600   54.9810   68.9160 C.3    52  GLN52       0.1566
    111  C          1.8240   54.1740   68.3310 C.2    52  GLN52       0.2260
    112  O          2.5020   53.3960   69.0310 O.2    52  GLN52      -0.2867
    113  CB         0.9790   56.4730   68.9820 C.3    52  GLN52       0.0367
    114  CG        -0.1600   57.4150   69.3120 C.3    52  GLN52       0.0905
    115  CD        -1.4780   57.1460   68.6070 C.2    52  GLN52       0.2608
    116  OE1       -2.3900   56.5660   69.2100 O.2    52  GLN52      -0.2717
    117  NE2       -1.5940   57.5050   67.3380 N.am   52  GLN52      -0.0878
    118  N         14.5790   54.9830   77.1230 N.3    68  LEU68      -0.1231
    119  CA        14.8170   55.8340   78.2870 C.3    68  LEU68       0.1693
    120  C         13.6790   55.6930   79.2640 C.2    68  LEU68       0.2591
    121  O         13.9470   55.6630   80.4860 O.2    68  LEU68      -0.2718
    122  CB        14.9630   57.2970   77.8040 C.3    68  LEU68       0.0284
    123  CG        16.0920   57.6370   76.8070 C.3    68  LEU68       0.0019
    124  CD1       16.1520   59.1500   76.6240 C.3    68  LEU68       0.0001
    125  CD2       17.3970   57.0890   77.3440 C.3    68  LEU68       0.0001
    126  N         12.4330   55.6930   78.7400 N.am   69  LYS69      -0.1980
    127  CA        11.2670   55.5260   79.5940 C.3    69  LYS69       0.1596
    128  C         10.2030   54.6620   78.8990 C.2    69  LYS69       0.2287
    129  O         10.0410   54.8090   77.6970 O.2    69  LYS69      -0.2864
    130  CB        10.5030   56.8520   79.8290 C.3    69  LYS69       0.0298
    131  CG        11.3270   57.9380   80.4720 C.3    69  LYS69       0.0038
    132  CD        10.5880   59.2300   80.7500 C.3    69  LYS69       0.0206
    133  CE        11.5790   60.3320   81.1310 C.3    69  LYS69       0.1093
    134  NZ        10.8340   61.4870   81.7090 N.3    69  LYS69      -0.1314
    135  N          3.9220   57.0490   78.3930 N.3   116  ASP116     -0.1239
    136  CA         4.6240   57.4400   77.1970 C.3   116  ASP116      0.1674
    137  C          5.8930   56.6120   77.0190 C.2   116  ASP116      0.2266
    138  O          6.5120   56.2940   78.0260 O.2   116  ASP116     -0.2867
    139  CB         5.1140   58.9060   77.3330 C.3   116  ASP116      0.1410
    140  CG         3.9220   59.8440   77.1670 C.2   116  ASP116      0.3668
    141  OD1        2.8980   59.4730   76.5640 O.co2 116  ASP116     -0.2456
    142  OD2        4.0280   60.9920   77.5780 O.co2 116  ASP116     -0.2456
    143  N          9.7040   56.8290   75.6430 N.3   118  GLN118     -0.1245
    144  CA        10.7390   57.7500   75.1880 C.3   118  GLN118      0.1566
    145  C         12.0120   57.0100   74.8030 C.2   118  GLN118      0.2260
    146  O         12.4730   56.1770   75.5800 O.2   118  GLN118     -0.2867
    147  CB        11.1200   58.7140   76.3400 C.3   118  GLN118      0.0367
    148  CG        12.0030   59.8420   75.8000 C.3   118  GLN118      0.0905
    149  CD        12.2510   60.9150   76.8320 C.2   118  GLN118      0.2608
    150  OE1       12.6920   60.5420   77.9220 O.2   118  GLN118     -0.2717
    151  NE2       12.0240   62.1620   76.4630 N.am  118  GLN118     -0.0878
@<TRIPOS>BOND
     1    44    42   ar
     2    33    32    2
     3    41    42    1
     4    41    40    1
     5    36    37    1
     6    32    31    1
     7    42    43   ar
     8    71    72   ar
     9    71    69   ar
    10    72    70   ar
    11    29    28    1
    12    56    54    1
    13    35    34    1
    14    69    68   ar
    15    40    37    1
    16    70    68   ar
    17    37    38    1
    18    68    67    1
    19    28    25    1
    20    31    34    1
    21    31    30    1
    22    67    64    1
    23    30    26   am
    24    54    53    1
    25    54    55    1
    26    39    38    2
    27    53    50    1
    28    38    45   am
    29    27    26    2
    30    26    25    1
    31   117   115   am
    32    25    24    1
    33    66    65    2
    34    75    76    2
    35    75    74    1
    36    24    17   am
    37    45    46    1
    38    64    65    1
    39    64    63    1
    40    50    49    1
    41    50    51    1
    42    49    47   am
    43    65    73   am
    44   111   110    1
    45   111   112    2
    46    63    59   am
    47   115   116    2
    48   115   114    1
    49    52    51    2
    50    73    74    1
    51    74    77    1
    52    17    18    2
    53    17    16    1
    54    51    57   am
    55   110   113    1
    56   110   109    1
    57   113   114    1
    58    47    46    1
    59    47    48    2
    60    57    58    1
    61    59    58    1
    62    59    60    2
    63    16    15    1
    64    16    19    1
    65    81    82    1
    66    58    61    1
    67    84    83    2
    68    79    77    1
    69    77    78    1
    70    83    82    1
    71    19    20    2
    72    78    80    1
    73    82    85    1
    74    92    91    1
    75    61    62    1
    76   101   100    1
    77    89    90    1
    78    20    21    1
    79    91    90    1
    80    85    86    1
    81    96    97    1
    82    99    98    2
    83    90    93    1
    84   100    97    1
    85   105   104    2
    86    21    22    2
    87    21    23   am
    88    97    98    1
    89    98   102   am
    90   104   103    1
    91    86    87    1
    92    86    88    1
    93    93    95    1
    94    93    94    1
    95     4     3    2
    96   102   103    1
    97   102   108    1
    98     6     8    1
    99     6     5    1
   100   103   106    1
   101     7     5    1
   102     2     3    1
   103     2     5    1
   104     2     1    1
   105   145   144    1
   106   145   146    2
   107     3     9   am
   108   144   143    1
   109   144   147    1
   110   108   107    1
   111   148   147    1
   112   148   149    1
   113   106   107    1
   114    11    12    2
   115    11    10    1
   116     9    10    1
   117   151   149   am
   118   141   140   ar
   119    10    13    1
   120   124   123    1
   121   123   125    1
   122   123   122    1
   123   149   150    2
   124   137   136    1
   125   137   138    2
   126   118   119    1
   127   140   139    1
   128   140   142   ar
   129   136   139    1
   130   136   135    1
   131   129   128    2
   132   122   119    1
   133    13    14    1
   134   119   120    1
   135   126   120   am
   136   126   127    1
   137   128   127    1
   138   120   121    2
   139   127   130    1
   140   130   131    1
   141   131   132    1
   142   132   133    1
   143   133   134    1
