@<TRIPOS>MOLECULE
tmp/1lrjA01.pdb
 229 222 0 0 0
SMALL
GASTEIGER

@<TRIPOS>ATOM
      1  N         28.2430    6.6740   31.8290 N.3    84  LYS84      -0.1245
      2  CA        26.8390    6.6850   32.1860 C.3    84  LYS84       0.1561
      3  C         26.1450    8.0430   32.4780 C.2    84  LYS84       0.2260
      4  O         25.0840    8.0470   33.0560 O.2    84  LYS84      -0.2867
      5  CB        26.5850    5.6280   33.2660 C.3    84  LYS84       0.0271
      6  CG        27.5040    5.6200   34.4770 C.3    84  LYS84       0.0035
      7  CD        27.1780    6.7160   35.4820 C.3    84  LYS84       0.0206
      8  CE        27.8050    6.4990   36.8460 C.3    84  LYS84       0.1093
      9  NZ        28.2040    7.7650   37.4900 N.3    84  LYS84      -0.1314
     10  N         23.8540   10.8400   31.3780 N.3    86  VAL86      -0.1245
     11  CA        22.9270   11.1170   30.2940 C.3    86  VAL86       0.1561
     12  C         23.1010   12.4080   29.4760 C.2    86  VAL86       0.2260
     13  O         23.2220   12.4440   28.2340 O.2    86  VAL86      -0.2867
     14  CB        21.5130   10.8710   30.7310 C.3    86  VAL86       0.0252
     15  CG1       20.5680   11.3010   29.5980 C.3    86  VAL86       0.0019
     16  CG2       21.3270    9.4160   31.1560 C.3    86  VAL86       0.0019
     17  N         20.8960   -1.4150   31.7590 N.3   124  SER124     -0.1202
     18  CA        20.1170   -0.2680   32.2410 C.3   124  SER124      0.2020
     19  C         18.6470   -0.3590   31.8470 C.2   124  SER124      0.2619
     20  O         18.3050   -0.7830   30.7570 O.2   124  SER124     -0.2717
     21  CB        20.6880    1.0100   31.6630 C.3   124  SER124      0.2103
     22  OG        19.7860    2.0200   31.9220 O.3   124  SER124     -0.2182
     23  N         17.7620    0.0240   32.7400 N.am  125  ALA125     -0.1965
     24  CA        16.3680   -0.0580   32.4000 C.3   125  ALA125      0.1728
     25  C         15.9070    1.0300   31.4420 C.2   125  ALA125      0.2616
     26  O         14.7700    1.1020   31.0360 O.2   125  ALA125     -0.2715
     27  CB        15.5800   -0.1070   33.6650 C.3   125  ALA125      0.0334
     28  N         16.8310    1.8910   31.0310 N.am  126  THR126     -0.1951
     29  CA        16.5460    2.9310   30.0650 C.3   126  THR126      0.1897
     30  C         16.1880    2.2840   28.6970 C.2   126  THR126      0.2313
     31  O         15.5340    2.9000   27.8230 O.2   126  THR126     -0.2863
     32  CB        17.7340    3.9000   29.9720 C.3   126  THR126      0.1794
     33  OG1       17.7350    4.7300   31.1240 O.3   126  THR126     -0.2208
     34  CG2       17.6570    4.7360   28.6920 C.3   126  THR126      0.0378
     35  N         23.3530    7.7230   25.4840 N.3   149  TYR149     -0.1241
     36  CA        23.6470    6.8050   26.6050 C.3   149  TYR149      0.1605
     37  C         22.6950    5.5840   26.5590 C.2   149  TYR149      0.2264
     38  O         23.1490    4.4230   26.5940 O.2   149  TYR149     -0.2867
     39  CB        23.5690    7.4620   28.0380 C.3   149  TYR149      0.0534
     40  CG        23.5750    6.3870   29.0870 C.ar  149  TYR149     -0.0201
     41  CD1       22.4100    5.8930   29.6840 C.ar  149  TYR149     -0.0009
     42  CD2       24.7830    5.7710   29.4390 C.ar  149  TYR149     -0.0009
     43  CE1       22.4550    4.8330   30.6010 C.ar  149  TYR149      0.0417
     44  CE2       24.8600    4.7220   30.3510 C.ar  149  TYR149      0.0417
     45  CZ        23.6880    4.2900   30.9680 C.ar  149  TYR149      0.1957
     46  OH        23.7450    3.2850   31.8830 O.3   149  TYR149     -0.2866
     47  N         18.8180   -2.0810   35.4550 N.3   177  TYR177     -0.1227
     48  CA        18.3850   -1.4730   36.6510 C.3   177  TYR177      0.1736
     49  C         18.1890    0.0000   36.5030 C.2   177  TYR177      0.2595
     50  O         18.4300    0.5630   35.4350 O.2   177  TYR177     -0.2718
     51  CB        19.3130   -1.8640   37.7400 C.3   177  TYR177      0.0548
     52  CG        20.7650   -1.6740   37.3550 C.ar  177  TYR177     -0.0200
     53  CD1       21.5600   -2.7540   36.9460 C.ar  177  TYR177     -0.0009
     54  CD2       21.3200   -0.4010   37.4950 C.ar  177  TYR177     -0.0009
     55  CE1       22.9160   -2.5900   36.7000 C.ar  177  TYR177      0.0417
     56  CE2       22.6690   -0.2030   37.2180 C.ar  177  TYR177      0.0417
     57  CZ        23.4290   -1.2950   36.8200 C.ar  177  TYR177      0.1957
     58  OH        24.7220   -1.0720   36.5990 O.3   177  TYR177     -0.2866
     59  N         17.6470    0.6220   37.5490 N.am  178  PHE178     -0.1962
     60  CA        17.3550    2.0430   37.4390 C.3   178  PHE178      0.1771
     61  C         18.2810    2.8720   38.2410 C.2   178  PHE178      0.2620
     62  O         19.4050    3.0760   37.8200 O.2   178  PHE178     -0.2715
     63  CB        15.8980    2.4360   37.7160 C.3   178  PHE178      0.0574
     64  CG        15.0050    2.1900   36.5200 C.ar  178  PHE178     -0.0200
     65  CD1       13.9840    1.2240   36.5720 C.ar  178  PHE178     -0.0042
     66  CD2       15.2210    2.9240   35.3460 C.ar  178  PHE178     -0.0042
     67  CE1       13.1630    1.0160   35.4600 C.ar  178  PHE178     -0.0003
     68  CE2       14.4150    2.7140   34.2200 C.ar  178  PHE178     -0.0003
     69  CZ        13.3840    1.7690   34.2960 C.ar  178  PHE178     -0.0000
     70  N         17.8120    3.2850   39.4270 N.am  179  ASN179     -0.1959
     71  CA        18.6180    4.1660   40.2750 C.3   179  ASN179      0.1804
     72  C         19.2530    3.6380   41.5410 C.2   179  ASN179      0.2463
     73  O         18.6620    3.8000   42.6480 O.2   179  ASN179     -0.2730
     74  CB        17.8870    5.4320   40.6940 C.3   179  ASN179      0.1195
     75  CG        17.3620    6.1420   39.5160 C.2   179  ASN179      0.2630
     76  OD1       16.1930    5.9890   39.1660 O.2   179  ASN179     -0.2716
     77  ND2       18.2470    6.8890   38.9030 N.am  179  ASN179     -0.0877
     78  N         20.5200    3.1990   41.3370 N.am  180  PRO180     -0.2727
     79  CA        21.4440    2.7500   42.3860 C.3   180  PRO180      0.1402
     80  C         21.7430    3.9550   43.3690 C.2   180  PRO180      0.2269
     81  O         22.1090    5.0780   42.9440 O.2   180  PRO180     -0.2865
     82  CB        22.7440    2.3450   41.6540 C.3   180  PRO180      0.0296
     83  CG        22.6920    3.0290   40.3170 C.3   180  PRO180      0.0237
     84  CD        21.2280    3.4190   40.0380 C.3   180  PRO180      0.0939
     85  N         24.8430   13.7570   38.9610 N.3   198  ASN198     -0.1225
     86  CA        23.8480   13.3060   37.9730 C.3   198  ASN198      0.1785
     87  C         22.5010   12.9340   38.6040 C.2   198  ASN198      0.2597
     88  O         21.4400   13.4530   38.2560 O.2   198  ASN198     -0.2718
     89  CB        24.3580   12.0280   37.2500 C.3   198  ASN198      0.1169
     90  CG        25.3850   12.1640   36.1260 C.2   198  ASN198      0.2627
     91  OD1       26.0460   11.1630   35.7870 O.2   198  ASN198     -0.2716
     92  ND2       25.5220   13.3520   35.5170 N.am  198  ASN198     -0.0877
     93  N         22.6010   11.9720   39.5260 N.am  199  ASN199     -0.1960
     94  CA        21.5060   11.4000   40.2910 C.3   199  ASN199      0.1819
     95  C         21.0290   12.2960   41.4700 C.2   199  ASN199      0.2621
     96  O         21.7960   13.0530   42.1040 O.2   199  ASN199     -0.2715
     97  CB        21.9180    9.9730   40.7680 C.3   199  ASN199      0.1195
     98  CG        22.1260    8.9780   39.6280 C.2   199  ASN199      0.2630
     99  OD1       22.5130    9.3420   38.5010 O.2   199  ASN199     -0.2716
    100  ND2       21.8580    7.7120   39.9240 N.am  199  ASN199     -0.0877
    101  N         19.7260   12.1490   41.7410 N.am  200  LEU200     -0.1977
    102  CA        18.9520   12.8350   42.7590 C.3   200  LEU200      0.1596
    103  C         19.5650   12.7420   44.1230 C.2   200  LEU200      0.2287
    104  O         19.7880   13.7160   44.8230 O.2   200  LEU200     -0.2864
    105  CB        17.5190   12.2300   42.7760 C.3   200  LEU200      0.0297
    106  CG        16.4950   13.0220   43.5760 C.3   200  LEU200      0.0022
    107  CD1       16.3180   14.4660   43.0890 C.3   200  LEU200      0.0001
    108  CD2       15.1540   12.2650   43.6280 C.3   200  LEU200      0.0001
    109  N         22.8380   14.6110   44.5520 N.3   203  TYR203     -0.1241
    110  CA        22.5880   15.9920   44.3320 C.3   203  TYR203      0.1605
    111  C         22.0280   16.5480   45.6280 C.2   203  TYR203      0.2264
    112  O         22.4470   17.5820   46.0890 O.2   203  TYR203     -0.2867
    113  CB        21.5800   16.2970   43.1960 C.3   203  TYR203      0.0534
    114  CG        21.5530   17.7930   42.8880 C.ar  203  TYR203     -0.0201
    115  CD1       20.9180   18.6770   43.7600 C.ar  203  TYR203     -0.0009
    116  CD2       22.1600   18.3460   41.7520 C.ar  203  TYR203     -0.0009
    117  CE1       20.8760   20.0570   43.5490 C.ar  203  TYR203      0.0417
    118  CE2       22.1210   19.7270   41.5040 C.ar  203  TYR203      0.0417
    119  CZ        21.5060   20.5840   42.4250 C.ar  203  TYR203      0.1957
    120  OH        21.4730   21.9440   42.2420 O.3   203  TYR203     -0.2866
    121  N         17.5500   22.2400   45.7250 N.3   215  LEU215     -0.1231
    122  CA        17.3060   21.2210   44.7250 C.3   215  LEU215      0.1693
    123  C         16.1950   21.6920   43.8330 C.2   215  LEU215      0.2592
    124  O         15.1120   22.0800   44.3140 O.2   215  LEU215     -0.2718
    125  CB        16.8570   19.8780   45.3690 C.3   215  LEU215      0.0284
    126  CG        16.1800   18.9090   44.3950 C.3   215  LEU215      0.0019
    127  CD1       17.1990   18.2310   43.4470 C.3   215  LEU215      0.0001
    128  CD2       15.4550   17.8280   45.1850 C.3   215  LEU215      0.0001
    129  N         16.4840   21.6720   42.5220 N.am  216  ALA216     -0.1966
    130  CA        15.4730   22.0320   41.5600 C.3   216  ALA216      0.1728
    131  C         14.6490   20.7990   41.3620 C.2   216  ALA216      0.2616
    132  O         15.2110   19.7540   41.0120 O.2   216  ALA216     -0.2715
    133  CB        16.0250   22.4170   40.1530 C.3   216  ALA216      0.0334
    134  N         13.3440   20.9250   41.5360 N.am  217  ILE217     -0.1963
    135  CA        12.4570   19.7980   41.3020 C.3   217  ILE217      0.1727
    136  C         11.7340   20.0340   39.9880 C.2   217  ILE217      0.2616
    137  O         10.9090   20.9300   39.8740 O.2   217  ILE217     -0.2715
    138  CB        11.4460   19.5980   42.4300 C.3   217  ILE217      0.0290
    139  CG1       12.1520   19.0540   43.6530 C.3   217  ILE217      0.0022
    140  CG2       10.4250   18.5740   41.9530 C.3   217  ILE217      0.0023
    141  CD1       11.2930   19.0100   44.8940 C.3   217  ILE217      0.0001
    142  N         12.0290   19.2100   38.9700 N.am  218  PHE218     -0.1974
    143  CA        11.4180   19.4110   37.6510 C.3   218  PHE218      0.1639
    144  C          9.9930   18.8890   37.4190 C.2   218  PHE218      0.2290
    145  O          9.7460   17.7270   37.1060 O.2   218  PHE218     -0.2864
    146  CB        12.4010   18.9830   36.5040 C.3   218  PHE218      0.0560
    147  CG        13.8760   19.2700   36.8200 C.ar  218  PHE218     -0.0200
    148  CD1       14.7620   18.2330   37.1130 C.ar  218  PHE218     -0.0042
    149  CD2       14.3820   20.5750   36.7640 C.ar  218  PHE218     -0.0042
    150  CE1       16.1170   18.4700   37.3630 C.ar  218  PHE218     -0.0003
    151  CE2       15.7320   20.8400   37.0490 C.ar  218  PHE218     -0.0003
    152  CZ        16.5940   19.7820   37.3400 C.ar  218  PHE218     -0.0000
    153  N          2.8880   16.3190   37.5060 N.3   222  TYR222     -0.1241
    154  CA         2.7060   15.0130   36.9050 C.3   222  TYR222      0.1605
    155  C          1.4970   14.3660   37.5270 C.2   222  TYR222      0.2264
    156  O          1.0030   14.7680   38.5840 O.2   222  TYR222     -0.2867
    157  CB         3.9640   14.1890   37.1330 C.3   222  TYR222      0.0534
    158  CG         5.0840   14.7280   36.3170 C.ar  222  TYR222     -0.0201
    159  CD1        5.0370   14.5480   34.9370 C.ar  222  TYR222     -0.0009
    160  CD2        6.2390   15.2680   36.8580 C.ar  222  TYR222     -0.0009
    161  CE1        6.0820   14.9300   34.0880 C.ar  222  TYR222      0.0417
    162  CE2        7.3160   15.6250   36.0360 C.ar  222  TYR222      0.0417
    163  CZ         7.2460   15.4570   34.6440 C.ar  222  TYR222      0.1957
    164  OH         8.2380   15.8670   33.7940 O.3   222  TYR222     -0.2866
    165  N          7.8640   13.4650   39.8910 N.3   229  GLY229     -0.1225
    166  CA         8.2260   12.2390   39.1720 C.3   229  GLY229      0.1811
    167  C          8.4680   11.0700   40.1190 C.2   229  GLY229      0.2280
    168  O          9.1060   11.1970   41.1670 O.2   229  GLY229     -0.2866
    169  N         10.1300    7.3970   40.5390 N.3   231  ARG231     -0.1245
    170  CA        11.1970    6.6000   40.0110 C.3   231  ARG231      0.1563
    171  C         11.4420    5.4550   40.9630 C.2   231  ARG231      0.2260
    172  O         10.9020    5.3820   42.0890 O.2   231  ARG231     -0.2867
    173  CB        12.4660    7.4160   39.7510 C.3   231  ARG231      0.0307
    174  CG        12.2020    8.6630   38.8980 C.3   231  ARG231      0.0489
    175  CD        12.1080    8.2970   37.4300 C.3   231  ARG231      0.2205
    176  NE        11.9910    9.3820   36.4530 N.pl3 231  ARG231     -0.0865
    177  CZ        10.8330    9.8250   35.9590 C.cat 231  ARG231      0.5346
    178  NH1        9.6400    9.3500   36.3760 N.pl3 231  ARG231      0.1354
    179  NH2       10.8550   10.8000   35.0380 N.pl3 231  ARG231      0.1354
    180  N         14.3750    3.3900   42.9410 N.3   233  TYR233     -0.1241
    181  CA        15.6930    3.5110   43.5230 C.3   233  TYR233      0.1605
    182  C         16.0340    2.2240   44.1640 C.2   233  TYR233      0.2264
    183  O         15.1930    1.5830   44.8190 O.2   233  TYR233     -0.2867
    184  CB        15.8250    4.6850   44.5330 C.3   233  TYR233      0.0534
    185  CG        15.3370    5.9660   43.8900 C.ar  233  TYR233     -0.0201
    186  CD1       16.2310    6.8030   43.2240 C.ar  233  TYR233     -0.0009
    187  CD2       13.9830    6.3320   43.9180 C.ar  233  TYR233     -0.0009
    188  CE1       15.8170    7.9970   42.6270 C.ar  233  TYR233      0.0417
    189  CE2       13.5460    7.5030   43.2990 C.ar  233  TYR233      0.0417
    190  CZ        14.4650    8.3290   42.6380 C.ar  233  TYR233      0.1957
    191  OH        14.0270    9.5030   42.0510 O.3   233  TYR233     -0.2866
    192  N          9.8700   12.3150   43.8600 N.3   269  VAL269     -0.1245
    193  CA        10.9840   13.1300   44.1800 C.3   269  VAL269      0.1561
    194  C         10.8450   13.5930   45.6400 C.2   269  VAL269      0.2260
    195  O         11.8180   13.5350   46.4070 O.2   269  VAL269     -0.2867
    196  CB        11.0850   14.2860   43.1980 C.3   269  VAL269      0.0252
    197  CG1       12.2280   15.2080   43.6770 C.3   269  VAL269      0.0019
    198  CG2       11.3430   13.6750   41.7970 C.3   269  VAL269      0.0019
    199  N         11.1880   18.6800   33.1720 N.3   292  ARG292     -0.1197
    200  CA        12.4550   18.4730   32.4620 C.3   292  ARG292      0.1779
    201  C         12.4020   17.9210   31.0120 C.2   292  ARG292      0.2305
    202  O         11.3210   17.8010   30.3680 O.2   292  ARG292     -0.2863
    203  CB        13.7600   18.3260   33.2900 C.2   292  ARG292     -0.0007
    204  CG        14.5640   17.0340   33.0710 C.2   292  ARG292      0.0176
    205  CD        15.7700   16.8040   34.0040 C.3   292  ARG292      0.2464
    206  NE        15.8180   15.4400   34.5980 N.pl3 292  ARG292     -0.0815
    207  CZ        16.8240   14.9370   35.3500 C.cat 292  ARG292      0.5349
    208  NH1       17.9310   15.6520   35.6620 N.pl3 292  ARG292      0.1354
    209  NH2       16.7240   13.6750   35.8140 N.pl3 292  ARG292      0.1354
    210  N         12.3000   13.3100   30.6740 N.3   295  ASP295     -0.1239
    211  CA        11.5560   12.7640   31.8190 C.3   295  ASP295      0.1674
    212  C         10.0420   12.4620   31.5870 C.2   295  ASP295      0.2266
    213  O          9.3690   13.2400   30.9320 O.2   295  ASP295     -0.2867
    214  CB        11.7260   13.7510   32.9930 C.3   295  ASP295      0.1410
    215  CG        13.1470   13.9310   33.4790 C.2   295  ASP295      0.3668
    216  OD1       14.0980   13.2660   33.0870 O.co2 295  ASP295     -0.2456
    217  OD2       13.2520   14.8910   34.3710 O.co2 295  ASP295     -0.2456
    218  N          7.7890    5.6210   36.4840 N.3   299  TYR299     -0.1241
    219  CA         8.1680    4.2840   36.0180 C.3   299  TYR299      0.1605
    220  C          9.0430    3.6010   37.0450 C.2   299  TYR299      0.2264
    221  O          9.7100    4.2850   37.8290 O.2   299  TYR299     -0.2867
    222  CB         8.7860    4.2310   34.6110 C.3   299  TYR299      0.0534
    223  CG        10.0120    5.0880   34.4960 C.ar  299  TYR299     -0.0201
    224  CD1        9.9070    6.3920   34.0040 C.ar  299  TYR299     -0.0009
    225  CD2       11.2600    4.5760   34.8580 C.ar  299  TYR299     -0.0009
    226  CE1       11.0490    7.1810   33.8750 C.ar  299  TYR299      0.0417
    227  CE2       12.4150    5.3490   34.7310 C.ar  299  TYR299      0.0417
    228  CZ        12.2960    6.6490   34.2310 C.ar  299  TYR299      0.1957
    229  OH        13.4190    7.4350   34.0820 O.3   299  TYR299     -0.2866
@<TRIPOS>BOND
     1    35    36    1
     2    37    38    2
     3    37    36    1
     4    36    39    1
     5    31    30    2
     6    39    40    1
     7    13    12    2
     8    34    32    1
     9    30    29    1
    10    40    42   ar
    11    40    41   ar
    12    42    44   ar
    13    12    11    1
    14    15    14    1
    15    41    43   ar
    16    32    29    1
    17    32    33    1
    18    29    28    1
    19    11    14    1
    20    11    10    1
    21    44    45   ar
    22   202   201    2
    23    43    45   ar
    24   210   211    1
    25    14    16    1
    26    20    19    2
    27   213   212    2
    28    45    46    1
    29   201   200    1
    30    28    25   am
    31    26    25    2
    32    25    24    1
    33   212   211    1
    34    21    22    1
    35    21    18    1
    36    17    18    1
    37   211   214    1
    38     1     2    1
    39    19    18    1
    40    19    23   am
    41     2     3    1
    42     2     5    1
    43    24    23    1
    44    24    27    1
    45   200   199    1
    46   200   203    1
    47     3     4    2
    48   214   215    1
    49   204   203    2
    50   204   205    1
    51   216   215   ar
    52     5     6    1
    53   215   217   ar
    54   164   163    1
    55   226   224   ar
    56   226   228   ar
    57   205   206    1
    58   224   223   ar
    59   229   228    1
    60   161   163   ar
    61   161   159   ar
    62    68    69   ar
    63    68    66   ar
    64   228   227   ar
    65    69    67   ar
    66     6     7    1
    67   223   222    1
    68   223   225   ar
    69   206   207    2
    70   222   219    1
    71   163   162   ar
    72   227   225   ar
    73   159   158   ar
    74   179   177    1
    75    66    64   ar
    76   207   208    1
    77   207   209    1
    78    50    49    2
    79    47    48    1
    80    67    65   ar
    81     7     8    1
    82    92    90   am
    83    91    90    2
    84   177   178    1
    85   177   176    2
    86   219   218    1
    87   219   220    1
    88   162   160   ar
    89    90    89    1
    90   158   160   ar
    91   158   157    1
    92   176   175    1
    93    49    48    1
    94    49    59   am
    95   146   147    1
    96   146   143    1
    97    64    65   ar
    98    64    63    1
    99    58    57    1
   100    48    51    1
   101    55    57   ar
   102    55    53   ar
   103   149   147   ar
   104   149   151   ar
   105    57    56   ar
   106   147   148   ar
   107     8     9    1
   108   154   157    1
   109   154   153    1
   110   154   155    1
   111    53    52   ar
   112   220   221    2
   113   151   152   ar
   114   145   144    2
   115   148   150   ar
   116    56    54   ar
   117    89    86    1
   118   152   150   ar
   119    52    54   ar
   120    52    51    1
   121   144   143    1
   122   175   174    1
   123    60    59    1
   124    60    63    1
   125    60    61    1
   126   155   156    2
   127   143   142    1
   128    62    61    2
   129    86    87    1
   130    86    85    1
   131    61    70   am
   132    88    87    2
   133    99    98    2
   134    87    93   am
   135   174   173    1
   136    77    75   am
   137   142   136   am
   138    76    75    2
   139   166   165    1
   140   166   167    1
   141    70    71    1
   142    75    74    1
   143    93    94    1
   144    98   100   am
   145    98    97    1
   146   173   170    1
   147   137   136    2
   148   136   135    1
   149   170   169    1
   150   170   171    1
   151    84    83    1
   152    84    78    1
   153   167   168    2
   154   133   130    1
   155    71    74    1
   156    71    72    1
   157    94    97    1
   158    94    95    1
   159    83    82    1
   160   171   172    2
   161   132   131    2
   162   135   134    1
   163   135   138    1
   164    78    72   am
   165    78    79    1
   166   131   134   am
   167   131   130    1
   168    95   101   am
   169    95    96    2
   170   118   116   ar
   171   118   119   ar
   172    72    73    2
   173   130   129    1
   174    82    79    1
   175   101   102    1
   176   116   114   ar
   177   198   196    1
   178   140   138    1
   179   191   190    1
   180   120   119    1
   181    79    80    1
   182   119   117   ar
   183   138   139    1
   184   129   123   am
   185   188   190   ar
   186   188   186   ar
   187   190   189   ar
   188   102   105    1
   189   102   103    1
   190   105   106    1
   191   114   113    1
   192   114   115   ar
   193   180   181    1
   194    81    80    2
   195   107   106    1
   196   113   110    1
   197   196   197    1
   198   196   193    1
   199   186   185   ar
   200   189   187   ar
   201   127   126    1
   202   181   182    1
   203   181   184    1
   204   117   115   ar
   205   106   108    1
   206   139   141    1
   207   123   124    2
   208   123   122    1
   209   192   193    1
   210   185   187   ar
   211   185   184    1
   212   103   104    2
   213   182   183    2
   214   193   194    1
   215   110   109    1
   216   110   111    1
   217   126   128    1
   218   126   125    1
   219   122   125    1
   220   122   121    1
   221   111   112    2
   222   194   195    2
