@<TRIPOS>MOLECULE
tmp/1lrtA05.pdb
 80 72 0 0 0
SMALL
GASTEIGER

@<TRIPOS>ATOM
      1  N        -31.3750   53.3030   60.1060 N.3    38  LYS38      -0.1245
      2  CA       -31.0640   54.7240   60.2050 C.3    38  LYS38       0.1561
      3  C        -31.6840   55.4170   61.4050 C.2    38  LYS38       0.2260
      4  O        -32.8000   55.0960   61.8340 O.2    38  LYS38      -0.2867
      5  CB       -31.4820   55.4520   58.9240 C.3    38  LYS38       0.0271
      6  CG       -32.9880   55.6360   58.7780 C.3    38  LYS38       0.0035
      7  CD       -33.3370   56.3980   57.5150 C.3    38  LYS38       0.0206
      8  CE       -34.8420   56.4490   57.3000 C.3    38  LYS38       0.1093
      9  NZ       -35.1880   57.2100   56.0680 N.3    38  LYS38      -0.1314
     10  N        -43.6910   53.5770   52.9070 N.3   147  ARG147     -0.1245
     11  CA       -43.7410   54.7910   53.7160 C.3   147  ARG147      0.1563
     12  C        -45.1420   55.3670   53.6920 C.2   147  ARG147      0.2260
     13  O        -45.6270   55.8980   54.6890 O.2   147  ARG147     -0.2867
     14  CB       -42.7620   55.8320   53.1780 C.3   147  ARG147      0.0307
     15  CG       -41.3070   55.4760   53.3800 C.3   147  ARG147      0.0489
     16  CD       -40.8720   55.6830   54.8250 C.3   147  ARG147      0.2205
     17  NE       -39.4970   55.2380   55.0260 N.pl3 147  ARG147     -0.0865
     18  CZ       -39.1550   54.0760   55.5720 C.cat 147  ARG147      0.5346
     19  NH1      -40.0880   53.2310   55.9850 N.pl3 147  ARG147      0.1354
     20  NH2      -37.8770   53.7500   55.6900 N.pl3 147  ARG147      0.1354
     21  N        -42.8000   55.5150   59.1340 N.3   152  ASP152     -0.1239
     22  CA       -41.5180   55.0210   59.6360 C.3   152  ASP152      0.1674
     23  C        -41.6470   53.7990   60.5440 C.2   152  ASP152      0.2266
     24  O        -40.6600   53.3490   61.1250 O.2   152  ASP152     -0.2867
     25  CB       -40.7880   56.1360   60.3900 C.3   152  ASP152      0.1410
     26  CG       -40.0700   57.1040   59.4600 C.2   152  ASP152      0.3668
     27  OD1      -39.8450   58.2640   59.8690 O.co2 152  ASP152     -0.2456
     28  OD2      -39.7130   56.7050   58.3280 O.co2 152  ASP152     -0.2456
     29  N        -30.7820   56.4360   49.5520 N.3   171  ALA171     -0.1231
     30  CA       -30.8920   57.2160   50.7800 C.3   171  ALA171      0.1694
     31  C        -32.0560   58.2090   50.6520 C.2   171  ALA171      0.2592
     32  O        -32.9100   58.2770   51.5340 O.2   171  ALA171     -0.2718
     33  CB       -29.5790   57.9640   51.0650 C.3   171  ALA171      0.0304
     34  N        -32.0930   58.9700   49.5570 N.am  172  ASP172     -0.1974
     35  CA       -33.1770   59.9390   49.3580 C.3   172  ASP172      0.1709
     36  C        -34.5380   59.2550   49.2410 C.2   172  ASP172      0.2293
     37  O        -35.5580   59.8400   49.5990 O.2   172  ASP172     -0.2864
     38  CB       -32.9400   60.8050   48.1120 C.3   172  ASP172      0.1436
     39  CG       -31.8340   61.8390   48.3100 C.2   172  ASP172      0.3671
     40  OD1      -31.6830   62.3550   49.4350 O.co2 172  ASP172     -0.2456
     41  OD2      -31.1250   62.1510   47.3350 O.co2 172  ASP172     -0.2456
     42  N        -35.5500   56.8420   50.9900 N.3   174  GLY174     -0.1225
     43  CA       -36.0480   56.4600   52.3060 C.3   174  GLY174      0.1811
     44  C        -35.5450   55.1790   52.9630 C.2   174  GLY174      0.2280
     45  O        -35.9520   54.8640   54.0810 O.2   174  GLY174     -0.2866
     46  N        -23.4960   62.3400   53.3710 N.3   211  TYR211     -0.1241
     47  CA       -24.9480   62.4130   53.5330 C.3   211  TYR211      0.1605
     48  C        -25.2940   62.7270   54.9850 C.2   211  TYR211      0.2264
     49  O        -26.2010   63.5120   55.2650 O.2   211  TYR211     -0.2867
     50  CB       -25.5880   61.0780   53.1370 C.3   211  TYR211      0.0534
     51  CG       -27.0850   61.1440   52.9050 C.ar  211  TYR211     -0.0201
     52  CD1      -27.6000   61.4960   51.6570 C.ar  211  TYR211     -0.0009
     53  CD2      -27.9860   60.8490   53.9280 C.ar  211  TYR211     -0.0009
     54  CE1      -28.9710   61.5470   51.4310 C.ar  211  TYR211      0.0417
     55  CE2      -29.3660   60.8990   53.7120 C.ar  211  TYR211      0.0417
     56  CZ       -29.8490   61.2450   52.4600 C.ar  211  TYR211      0.1957
     57  OH       -31.2060   61.2690   52.2210 O.3   211  TYR211     -0.2866
     58  N        -27.4970   65.8530   56.1640 N.3   215  THR215     -0.1218
     59  CA       -28.8330   65.6550   56.7080 C.3   215  THR215      0.1862
     60  C        -28.9670   65.3670   58.1960 C.2   215  THR215      0.2287
     61  O        -30.0530   65.4970   58.7520 O.2   215  THR215     -0.2866
     62  CB       -29.5170   64.5110   55.9630 C.3   215  THR215      0.1770
     63  OG1      -28.8210   63.2870   56.2430 O.3   215  THR215     -0.2211
     64  CG2      -29.4850   64.7650   54.4610 C.3   215  THR215      0.0375
     65  N        -28.6650   62.5340   59.2810 N.3   217  ILE217     -0.1245
     66  CA       -29.1990   61.1770   59.2960 C.3   217  ILE217      0.1561
     67  C        -28.1290   60.1340   58.9920 C.2   217  ILE217      0.2260
     68  O        -27.5090   60.1620   57.9300 O.2   217  ILE217     -0.2867
     69  CB       -30.3210   61.0190   58.2610 C.3   217  ILE217      0.0252
     70  CG1      -31.4470   62.0060   58.5600 C.3   217  ILE217      0.0019
     71  CG2      -30.8440   59.5990   58.2750 C.3   217  ILE217      0.0019
     72  CD1      -32.3740   62.1900   57.3960 C.3   217  ILE217      0.0001
     73  N        -27.1410   56.5150   57.9690 N.3   219  ILE219     -0.1245
     74  CA       -27.6880   55.3320   57.3400 C.3   219  ILE219      0.1561
     75  C        -26.7000   54.1680   57.3710 C.2   219  ILE219      0.2260
     76  O        -25.6740   54.1720   56.6870 O.2   219  ILE219     -0.2867
     77  CB       -28.1030   55.6090   55.8850 C.3   219  ILE219      0.0252
     78  CG1      -29.1130   56.7630   55.8500 C.3   219  ILE219      0.0019
     79  CG2      -28.7060   54.3380   55.2700 C.3   219  ILE219      0.0019
     80  CD1      -29.6240   57.1050   54.4670 C.3   219  ILE219      0.0001
@<TRIPOS>BOND
     1    41    39   ar
     2    38    39    1
     3    38    35    1
     4    39    40   ar
     5    36    35    1
     6    36    37    2
     7    35    34    1
     8    29    30    1
     9    34    31   am
    10    31    30    1
    11    31    32    2
    12    30    33    1
    13    42    43    1
    14    54    52   ar
    15    54    56   ar
    16    52    51   ar
    17    57    56    1
    18    43    44    1
    19    56    55   ar
    20    51    50    1
    21    51    53   ar
    22    10    11    1
    23    44    45    2
    24    50    47    1
    25    14    15    1
    26    14    11    1
    27    46    47    1
    28    15    16    1
    29    47    48    1
    30    12    11    1
    31    12    13    2
    32    55    53   ar
    33    64    62    1
    34    80    78    1
    35    16    17    1
    36    48    49    2
    37    17    18    2
    38    79    77    1
    39    18    20    1
    40    18    19    1
    41    78    77    1
    42    77    74    1
    43    62    63    1
    44    62    59    1
    45     9     8    1
    46    58    59    1
    47    76    75    2
    48    59    60    1
    49     8     7    1
    50    74    75    1
    51    74    73    1
    52    72    70    1
    53     7     6    1
    54    68    67    2
    55    60    61    2
    56    69    71    1
    57    69    70    1
    58    69    66    1
    59    28    26   ar
    60     6     5    1
    61     5     2    1
    62    67    66    1
    63    21    22    1
    64    65    66    1
    65    26    27   ar
    66    26    25    1
    67    22    25    1
    68    22    23    1
    69     1     2    1
    70     2     3    1
    71    23    24    2
    72     3     4    2
