@<TRIPOS>MOLECULE
tmp/1lrtD02.pdb
 194 183 0 0 0
SMALL
GASTEIGER

@<TRIPOS>ATOM
      1  N         14.2670   35.9460   68.7090 N.3    57  ILE57      -0.1231
      2  CA        13.9270   35.6110   70.0900 C.3    57  ILE57       0.1692
      3  C         12.9740   34.4230   69.9870 C.2    57  ILE57       0.2591
      4  O         11.7640   34.5520   70.1510 O.2    57  ILE57      -0.2718
      5  CB        13.2170   36.7900   70.7880 C.3    57  ILE57       0.0266
      6  CG1       14.0100   38.0840   70.5490 C.3    57  ILE57       0.0019
      7  CG2       13.1120   36.5220   72.2910 C.3    57  ILE57       0.0020
      8  CD1       13.4460   39.2990   71.2530 C.3    57  ILE57       0.0001
      9  N         13.5350   33.2570   69.6990 N.am   58  MET58      -0.1979
     10  CA        12.7240   32.0640   69.5110 C.3    58  MET58       0.1605
     11  C         13.4120   30.8230   70.0670 C.2    58  MET58       0.2287
     12  O         14.6360   30.6760   69.9530 O.2    58  MET58      -0.2864
     13  CB        12.4680   31.8700   68.0110 C.3    58  MET58       0.0413
     14  CG        11.9770   33.1260   67.3030 C.3    58  MET58       0.0598
     15  SD        11.9410   32.9990   65.4960 S.3    58  MET58      -0.1393
     16  CE        10.6340   31.7920   65.2790 C.3    58  MET58       0.0692
     17  N          8.9580   39.7920   78.3800 N.3   108  ASN108     -0.1225
     18  CA         7.5650   40.0230   78.0320 C.3   108  ASN108      0.1785
     19  C          7.0000   41.1160   78.9220 C.2   108  ASN108      0.2598
     20  O          7.6310   41.5230   79.8970 O.2   108  ASN108     -0.2718
     21  CB         6.7450   38.7300   78.1660 C.3   108  ASN108      0.1169
     22  CG         6.7360   38.1820   79.5760 C.2   108  ASN108      0.2627
     23  OD1        6.1610   38.7810   80.4870 O.2   108  ASN108     -0.2716
     24  ND2        7.3790   37.0330   79.7660 N.am  108  ASN108     -0.0877
     25  N          5.8120   41.5940   78.5790 N.am  109  THR109     -0.1939
     26  CA         5.1790   42.6570   79.3390 C.3   109  THR109      0.2028
     27  C          4.3770   42.1270   80.5250 C.2   109  THR109      0.2642
     28  O          3.6240   42.8670   81.1460 O.2   109  THR109     -0.2714
     29  CB         4.2580   43.4910   78.4290 C.3   109  THR109      0.1808
     30  OG1        3.2910   42.6330   77.8190 O.3   109  THR109     -0.2208
     31  CG2        5.0670   44.1780   77.3300 C.3   109  THR109      0.0379
     32  N          4.5550   40.8510   80.8510 N.am  110  ARG110     -0.1977
     33  CA         3.8250   40.2530   81.9660 C.3   110  ARG110      0.1597
     34  C          4.6080   40.0700   83.2690 C.2   110  ARG110      0.2287
     35  O          4.2280   40.6240   84.3010 O.2   110  ARG110     -0.2864
     36  CB         3.2370   38.9030   81.5530 C.3   110  ARG110      0.0334
     37  CG         1.9330   38.9800   80.7650 C.3   110  ARG110      0.0492
     38  CD         1.3240   37.5860   80.6240 C.3   110  ARG110      0.2205
     39  NE        -0.0700   37.6080   80.1890 N.pl3 110  ARG110     -0.0865
     40  CZ        -0.4730   37.8980   78.9550 C.cat 110  ARG110      0.5346
     41  NH1        0.4170   38.1950   78.0140 N.pl3 110  ARG110      0.1354
     42  NH2       -1.7680   37.8860   78.6630 N.pl3 110  ARG110      0.1354
     43  N          7.8780   40.9410   83.8620 N.3   112  PHE112     -0.1241
     44  CA         9.1160   41.7140   83.8640 C.3   112  PHE112      0.1605
     45  C          9.6650   42.1380   85.2290 C.2   112  PHE112      0.2264
     46  O         10.8810   42.2500   85.3920 O.2   112  PHE112     -0.2867
     47  CB         8.9630   42.9420   82.9550 C.3   112  PHE112      0.0534
     48  CG         7.9140   43.9090   83.4050 C.ar  112  PHE112     -0.0203
     49  CD1        8.2020   44.8710   84.3650 C.ar  112  PHE112     -0.0042
     50  CD2        6.6360   43.8670   82.8600 C.ar  112  PHE112     -0.0042
     51  CE1        7.2340   45.7810   84.7740 C.ar  112  PHE112     -0.0003
     52  CE2        5.6610   44.7710   83.2630 C.ar  112  PHE112     -0.0003
     53  CZ         5.9590   45.7310   84.2210 C.ar  112  PHE112     -0.0000
     54  N          9.5880   41.3140   73.6200 N.3   130  ASP130     -0.1225
     55  CA         9.1820   40.4370   72.5300 C.3   130  ASP130      0.1805
     56  C          7.6560   40.4120   72.3420 C.2   130  ASP130      0.2598
     57  O          6.9170   39.9340   73.2030 O.2   130  ASP130     -0.2718
     58  CB         9.7370   39.0430   72.8350 C.3   130  ASP130      0.1424
     59  CG         9.3570   38.0040   71.8020 C.2   130  ASP130      0.3668
     60  OD1        9.1320   38.3570   70.6300 O.co2 130  ASP130     -0.2456
     61  OD2        9.3070   36.8120   72.1740 O.co2 130  ASP130     -0.2456
     62  N          7.1960   40.9370   71.2090 N.am  131  SER131     -0.1938
     63  CA         5.7690   40.9960   70.9060 C.3   131  SER131      0.2055
     64  C          5.5000   41.1300   69.4120 C.2   131  SER131      0.2644
     65  O          6.3370   41.6440   68.6640 O.2   131  SER131     -0.2714
     66  CB         5.1310   42.1850   71.6360 C.3   131  SER131      0.2130
     67  OG         3.7730   42.3660   71.2560 O.3   131  SER131     -0.2179
     68  N          4.3240   40.6680   68.9870 N.am  132  SER132     -0.1935
     69  CA         3.9170   40.7550   67.5860 C.3   132  SER132      0.2055
     70  C          3.3310   42.1460   67.2910 C.2   132  SER132      0.2643
     71  O          3.2540   42.5620   66.1390 O.2   132  SER132     -0.2714
     72  CB         2.8720   39.6790   67.2680 C.3   132  SER132      0.2130
     73  OG         1.6460   39.9170   67.9450 O.3   132  SER132     -0.2179
     74  N          2.9100   42.8490   68.3410 N.am  133  ASP133     -0.1971
     75  CA         2.3410   44.1920   68.2130 C.3   133  ASP133      0.1709
     76  C          2.8480   45.0370   69.3770 C.2   133  ASP133      0.2293
     77  O          2.2100   45.1160   70.4290 O.2   133  ASP133     -0.2864
     78  CB         0.8050   44.1310   68.2370 C.3   133  ASP133      0.1436
     79  CG         0.1570   45.5110   68.1780 C.2   133  ASP133      0.3671
     80  OD1        0.8830   46.5190   68.0200 O.co2 133  ASP133     -0.2456
     81  OD2       -1.0870   45.5870   68.2890 O.co2 133  ASP133     -0.2456
     82  N          1.3210   48.4860   77.4160 N.3   138  TRP138     -0.1241
     83  CA         2.0980   47.5080   78.1580 C.3   138  TRP138      0.1605
     84  C          3.6050   47.6310   77.9310 C.2   138  TRP138      0.2264
     85  O          4.3870   47.4380   78.8600 O.2   138  TRP138     -0.2867
     86  CB         1.6170   46.0900   77.8310 C.3   138  TRP138      0.0550
     87  CG         0.2940   45.7570   78.4860 C.ar  138  TRP138      0.0003
     88  CD1       -0.8870   45.4670   77.8600 C.ar  138  TRP138      0.0946
     89  CD2        0.0170   45.7230   79.8950 C.ar  138  TRP138      0.0152
     90  NE1       -1.8790   45.2600   78.7900 N.ar  138  TRP138     -0.2442
     91  CE2       -1.3520   45.4100   80.0450 C.ar  138  TRP138      0.0810
     92  CE3        0.7950   45.9270   81.0450 C.ar  138  TRP138      0.0012
     93  CZ2       -1.9640   45.2960   81.3030 C.ar  138  TRP138      0.0191
     94  CZ3        0.1860   45.8130   82.2970 C.ar  138  TRP138      0.0001
     95  CH2       -1.1800   45.4990   82.4120 C.ar  138  TRP138      0.0015
     96  N          7.8650   46.1380   67.9570 N.3   160  ASN160     -0.1240
     97  CA         7.7020   45.5380   66.6470 C.3   160  ASN160      0.1653
     98  C          6.5040   46.2910   66.1530 C.2   160  ASN160      0.2266
     99  O          5.3490   46.0110   66.4980 O.2   160  ASN160     -0.2867
    100  CB         7.4480   44.0340   66.6730 C.3   160  ASN160      0.1155
    101  CG         8.6870   43.2470   66.2680 C.2   160  ASN160      0.2627
    102  OD1        9.6790   43.2310   67.0000 O.2   160  ASN160     -0.2716
    103  ND2        8.6520   42.6180   65.0950 N.am  160  ASN160     -0.0877
    104  N         12.3120   47.4950   66.9510 N.3   179  LYS179     -0.1245
    105  CA        12.1960   46.3760   66.0240 C.3   179  LYS179      0.1561
    106  C         11.0120   46.5340   65.0680 C.2   179  LYS179      0.2260
    107  O          9.8840   46.8070   65.4840 O.2   179  LYS179     -0.2867
    108  CB        12.0720   45.0750   66.8360 C.3   179  LYS179      0.0271
    109  CG        12.7220   43.8620   66.1970 C.3   179  LYS179      0.0035
    110  CD        13.3780   42.9530   67.2480 C.3   179  LYS179      0.0206
    111  CE        12.3380   42.2900   68.1410 C.3   179  LYS179      0.1093
    112  NZ        11.4150   41.4680   67.3070 N.3   179  LYS179     -0.1314
    113  N          8.5970   44.9000   62.0010 N.3   181  GLY181     -0.1210
    114  CA         8.1750   43.6700   61.3630 C.3   181  GLY181      0.1956
    115  C          6.9460   42.9600   61.8880 C.2   181  GLY181      0.2612
    116  O          6.9630   42.4020   62.9770 O.2   181  GLY181     -0.2717
    117  N          5.8850   42.9630   61.0890 N.am  182  ILE182     -0.1965
    118  CA         4.6440   42.2880   61.4450 C.3   182  ILE182      0.1727
    119  C          4.0670   41.6350   60.1950 C.2   182  ILE182      0.2617
    120  O          3.6500   42.3250   59.2610 O.2   182  ILE182     -0.2715
    121  CB         3.5880   43.2630   62.0110 C.3   182  ILE182      0.0290
    122  CG1        4.0580   43.8310   63.3490 C.3   182  ILE182      0.0022
    123  CG2        2.2630   42.5430   62.1960 C.3   182  ILE182      0.0023
    124  CD1        3.1280   44.8990   63.9150 C.3   182  ILE182      0.0001
    125  N          4.0580   40.3050   60.1820 N.am  183  GLY183     -0.1940
    126  CA         3.5240   39.5710   59.0510 C.3   183  GLY183      0.2014
    127  C          4.5450   39.2310   57.9860 C.2   183  GLY183      0.2639
    128  O          4.1950   38.6570   56.9580 O.2   183  GLY183     -0.2714
    129  N          5.8090   39.5630   58.2260 N.am  184  GLY184     -0.1939
    130  CA         6.8380   39.2800   57.2400 C.3   184  GLY184      0.2014
    131  C          7.6520   38.0200   57.4800 C.2   184  GLY184      0.2639
    132  O          8.3360   37.5350   56.5720 O.2   184  GLY184     -0.2714
    133  N          7.5880   37.4900   58.6970 N.am  185  GLY185     -0.1954
    134  CA         8.3340   36.2850   59.0120 C.3   185  GLY185      0.1869
    135  C          7.9580   35.1410   58.0900 C.2   185  GLY185      0.2309
    136  O          6.8760   35.1410   57.5030 O.2   185  GLY185     -0.2863
    137  N          5.0680   32.6160   59.2070 N.3   188  CYS188     -0.1235
    138  CA         3.8330   33.3540   59.4150 C.3   188  CYS188      0.1677
    139  C          2.9430   33.2650   58.1890 C.2   188  CYS188      0.2270
    140  O          3.4240   33.2200   57.0570 O.2   188  CYS188     -0.2867
    141  CB         4.1250   34.8270   59.7040 C.3   188  CYS188      0.0956
    142  SG         2.6650   35.7720   60.2270 S.3   188  CYS188     -0.0801
    143  N         -1.0360   36.8710   58.3110 N.3   191  ARG191     -0.1245
    144  CA        -2.3560   37.1760   58.8300 C.3   191  ARG191      0.1563
    145  C         -3.5680   36.6750   58.0840 C.2   191  ARG191      0.2260
    146  O         -4.4580   37.4500   57.7340 O.2   191  ARG191     -0.2867
    147  CB        -2.4940   38.6740   59.0640 C.3   191  ARG191      0.0307
    148  CG        -2.0190   39.0600   60.4390 C.3   191  ARG191      0.0489
    149  CD        -0.5840   38.6180   60.6080 C.3   191  ARG191      0.2205
    150  NE        -0.1520   38.6950   61.9960 N.pl3 191  ARG191     -0.0865
    151  CZ         1.1120   38.5450   62.3720 C.cat 191  ARG191      0.5346
    152  NH1        2.0470   38.3210   61.4600 N.pl3 191  ARG191      0.1354
    153  NH2        1.4360   38.6020   63.6510 N.pl3 191  ARG191      0.1354
    154  N         13.1960   43.0760   61.4060 N.3   227  ASP227     -0.1239
    155  CA        12.9870   41.7310   61.9010 C.3   227  ASP227      0.1674
    156  C         12.0900   40.8730   61.0120 C.2   227  ASP227      0.2266
    157  O         10.8910   41.1190   60.9050 O.2   227  ASP227     -0.2867
    158  CB        12.4050   41.8340   63.3160 C.3   227  ASP227      0.1410
    159  CG        12.0720   40.4910   63.9120 C.2   227  ASP227      0.3668
    160  OD1       12.6360   39.4850   63.4480 O.co2 227  ASP227     -0.2456
    161  OD2       11.2590   40.4420   64.8610 O.co2 227  ASP227     -0.2456
    162  N          7.1030   31.3370   67.5620 N.3   277  GLU277     -0.1231
    163  CA         6.8760   31.5680   68.9810 C.3   277  GLU277      0.1699
    164  C          5.3950   31.7250   69.2640 C.2   277  GLU277      0.2592
    165  O          4.9720   31.6990   70.4160 O.2   277  GLU277     -0.2718
    166  CB         7.6220   32.8190   69.4430 C.3   277  GLU277      0.0402
    167  CG         9.1120   32.6110   69.5890 C.3   277  GLU277      0.1161
    168  CD         9.4470   31.5960   70.6650 C.2   277  GLU277      0.3649
    169  OE1        9.2220   31.8920   71.8510 O.co2 277  GLU277     -0.2457
    170  OE2        9.9310   30.4970   70.3260 O.co2 277  GLU277     -0.2457
    171  N          4.6140   31.8970   68.2030 N.am  278  GLY278     -0.1957
    172  CA         3.1800   32.0480   68.3550 C.3   278  GLY278      0.1869
    173  C          2.4780   30.7380   68.0600 C.2   278  GLY278      0.2309
    174  O          1.2510   30.6930   67.9510 O.2   278  GLY278     -0.2863
    175  N          3.9600   28.8510   73.1060 N.3   283  ARG283     -0.1245
    176  CA         3.0740   29.6680   73.9340 C.3   283  ARG283      0.1563
    177  C          2.7020   28.9050   75.2020 C.2   283  ARG283      0.2260
    178  O          2.2200   29.4900   76.1730 O.2   283  ARG283     -0.2867
    179  CB         1.7910   30.0140   73.1730 C.3   283  ARG283      0.0307
    180  CG         2.0040   30.6790   71.8200 C.3   283  ARG283      0.0489
    181  CD         0.6710   30.9330   71.1350 C.3   283  ARG283      0.2205
    182  NE        -0.1500   29.7260   71.1230 N.pl3 283  ARG283     -0.0865
    183  CZ        -1.3670   29.6480   70.5950 C.cat 283  ARG283      0.5346
    184  NH1       -1.9180   30.7140   70.0260 N.pl3 283  ARG283      0.1354
    185  NH2       -2.0350   28.5020   70.6430 N.pl3 283  ARG283      0.1354
    186  N         -0.7810   32.2370   65.6110 N.3   286  GLU286     -0.1245
    187  CA         0.1680   33.2600   65.1880 C.3   286  GLU286      0.1567
    188  C          1.2040   32.6910   64.2210 C.2   286  GLU286      0.2260
    189  O          1.5800   33.3450   63.2460 O.2   286  GLU286     -0.2867
    190  CB         0.8860   33.8560   66.4050 C.3   286  GLU286      0.0388
    191  CG        -0.0360   34.4760   67.4500 C.3   286  GLU286      0.1160
    192  CD        -0.8460   35.6420   66.9080 C.2   286  GLU286      0.3649
    193  OE1       -0.2370   36.6380   66.4600 O.co2 286  GLU286     -0.2457
    194  OE2       -2.0930   35.5640   66.9330 O.co2 286  GLU286     -0.2457
@<TRIPOS>BOND
     1   132   131    2
     2   128   127    2
     3   140   139    2
     4   130   131    1
     5   130   129    1
     6   131   133   am
     7   136   135    2
     8   146   145    2
     9   127   129   am
    10   127   126    1
    11   145   144    1
    12   135   134    1
    13   139   138    1
    14   143   144    1
    15   133   134    1
    16   144   147    1
    17   126   125    1
    18   147   148    1
    19   137   138    1
    20   120   119    2
    21   138   141    1
    22   141   142    1
    23   125   119   am
    24   119   118    1
    25   148   149    1
    26   149   150    1
    27   157   156    2
    28   156   155    1
    29   117   118    1
    30   117   115   am
    31   114   115    1
    32   114   113    1
    33   154   155    1
    34   118   121    1
    35   152   151    1
    36   115   116    2
    37   155   158    1
    38   150   151    2
    39   121   123    1
    40   121   122    1
    41   151   153    1
    42   189   188    2
    43   158   159    1
    44   122   124    1
    45   160   159   ar
    46   159   161   ar
    47   188   187    1
    48   106   107    2
    49   106   105    1
    50   103   101   am
    51   187   186    1
    52   187   190    1
    53    16    15    1
    54    15    14    1
    55   105   108    1
    56   105   104    1
    57    71    70    2
    58    98    99    2
    59    98    97    1
    60   109   108    1
    61   109   110    1
    62   101   100    1
    63   101   102    2
    64   190   191    1
    65   193   192   ar
    66    97   100    1
    67    97    96    1
    68   192   194   ar
    69   192   191    1
    70   110   111    1
    71    72    69    1
    72    72    73    1
    73    70    69    1
    74    70    74   am
    75    14    13    1
    76   112   111    1
    77   162   163    1
    78    69    68    1
    79   174   173    2
    80    13    10    1
    81    80    79   ar
    82   173   172    1
    83    79    78    1
    84    79    81   ar
    85   171   172    1
    86   171   164   am
    87    75    78    1
    88    75    74    1
    89    75    76    1
    90    65    64    2
    91     1     2    1
    92   163   164    1
    93   163   166    1
    94    68    64   am
    95   164   165    2
    96    76    77    2
    97    64    63    1
    98   166   167    1
    99    10     9    1
   100    10    11    1
   101   167   168    1
   102     9     3   am
   103    12    11    2
   104     3     2    1
   105     3     4    2
   106   184   183    1
   107     2     5    1
   108   170   168   ar
   109     6     5    1
   110     6     8    1
   111   183   185    1
   112   183   182    2
   113    60    59   ar
   114   168   169   ar
   115     5     7    1
   116    63    62    1
   117    63    66    1
   118   182   181    1
   119   181   180    1
   120    62    56   am
   121    67    66    1
   122    59    61   ar
   123    59    58    1
   124   180   179    1
   125    56    55    1
   126    56    57    2
   127    55    58    1
   128    55    54    1
   129   175   176    1
   130   179   176    1
   131   176   177    1
   132   177   178    2
   133    31    29    1
   134    82    83    1
   135    30    29    1
   136    86    83    1
   137    86    87    1
   138    88    87   ar
   139    88    90   ar
   140    84    83    1
   141    84    85    2
   142    41    40    1
   143    18    21    1
   144    18    17    1
   145    18    19    1
   146    21    22    1
   147    29    26    1
   148    87    89   ar
   149    25    19   am
   150    25    26    1
   151    42    40    1
   152    90    91   ar
   153    19    20    2
   154    40    39    2
   155    26    27    1
   156    22    24   am
   157    22    23    2
   158    89    91   ar
   159    89    92   ar
   160    91    93   ar
   161    39    38    1
   162    27    32   am
   163    27    28    2
   164    38    37    1
   165    37    36    1
   166    32    33    1
   167    92    94   ar
   168    93    95   ar
   169    36    33    1
   170    33    34    1
   171    94    95   ar
   172    50    52   ar
   173    50    48   ar
   174    47    48    1
   175    47    44    1
   176    52    53   ar
   177    34    35    2
   178    48    49   ar
   179    43    44    1
   180    44    45    1
   181    53    51   ar
   182    49    51   ar
   183    45    46    2
