@<TRIPOS>MOLECULE
tmp/1lrtA07.pdb
 82 80 0 0 0
SMALL
GASTEIGER

@<TRIPOS>ATOM
      1  N        -21.6970   45.3870   69.2570 N.3    33  SER33      -0.1202
      2  CA       -23.0510   45.7730   68.8630 C.3    33  SER33       0.2020
      3  C        -22.9620   46.8240   67.7480 C.2    33  SER33       0.2619
      4  O        -22.0120   47.6060   67.6900 O.2    33  SER33      -0.2717
      5  CB       -23.8290   46.3340   70.0620 C.3    33  SER33       0.2103
      6  OG       -23.6030   47.7260   70.2180 O.3    33  SER33      -0.2182
      7  N        -23.9510   46.8420   66.8640 N.am   34  THR34      -0.1939
      8  CA       -23.9350   47.7790   65.7580 C.3    34  THR34       0.2013
      9  C        -25.3700   48.1410   65.3480 C.2    34  THR34       0.2484
     10  O        -26.2970   47.3710   65.5930 O.2    34  THR34      -0.2729
     11  CB       -23.1550   47.1570   64.5660 C.3    34  THR34       0.1807
     12  OG1      -22.7010   48.1940   63.6930 O.3    34  THR34      -0.2208
     13  CG2      -24.0350   46.1810   63.7870 C.3    34  THR34       0.0379
     14  N        -25.5700   49.3270   64.7410 N.am   35  PRO35      -0.2726
     15  CA       -26.8980   49.7830   64.3060 C.3    35  PRO35       0.1402
     16  C        -27.3930   49.1020   63.0320 C.2    35  PRO35       0.2269
     17  O        -26.6250   48.8830   62.0910 O.2    35  PRO35      -0.2865
     18  CB       -26.7030   51.2840   64.1140 C.3    35  PRO35       0.0296
     19  CG       -25.2900   51.3630   63.6160 C.3    35  PRO35       0.0237
     20  CD       -24.5570   50.3800   64.5220 C.3    35  PRO35       0.0939
     21  N        -30.9440   56.3880   61.9240 N.3    39  PHE39      -0.1241
     22  CA       -31.3460   57.1700   63.0860 C.3    39  PHE39       0.1605
     23  C        -30.7160   58.5480   62.9140 C.2    39  PHE39       0.2264
     24  O        -29.9370   58.7590   61.9850 O.2    39  PHE39      -0.2867
     25  CB       -30.8290   56.4910   64.3570 C.3    39  PHE39       0.0534
     26  CG       -29.3480   56.2310   64.3400 C.ar   39  PHE39      -0.0203
     27  CD1      -28.4550   57.1810   64.8250 C.ar   39  PHE39      -0.0042
     28  CD2      -28.8470   55.0400   63.8260 C.ar   39  PHE39      -0.0042
     29  CE1      -27.0790   56.9450   64.8000 C.ar   39  PHE39      -0.0003
     30  CE2      -27.4780   54.7950   63.7940 C.ar   39  PHE39      -0.0003
     31  CZ       -26.5890   55.7490   64.2820 C.ar   39  PHE39      -0.0000
     32  N        -28.3760   60.2820   68.2980 N.3    43  GLN43      -0.1231
     33  CA       -29.2730   59.2510   68.7820 C.3    43  GLN43       0.1698
     34  C        -28.7910   57.8260   68.5770 C.2    43  GLN43       0.2592
     35  O        -27.6540   57.5860   68.1740 O.2    43  GLN43      -0.2718
     36  CB       -30.6660   59.4580   68.1800 C.3    43  GLN43       0.0381
     37  CG       -31.2970   60.7490   68.6850 C.3    43  GLN43       0.0905
     38  CD       -32.7100   60.9920   68.1960 C.2    43  GLN43       0.2608
     39  OE1      -33.3920   61.8850   68.6870 O.2    43  GLN43      -0.2717
     40  NE2      -33.1500   60.2130   67.2290 N.am   43  GLN43      -0.0878
     41  N        -29.6750   56.8840   68.8760 N.am   44  GLN44      -0.1966
     42  CA       -29.3840   55.4640   68.7840 C.3    44  GLN44       0.1733
     43  C        -30.3790   54.8160   67.8250 C.2    44  GLN44       0.2617
     44  O        -31.5330   55.2270   67.7650 O.2    44  GLN44      -0.2715
     45  CB       -29.5250   54.8610   70.1840 C.3    44  GLN44       0.0408
     46  CG       -29.1380   53.4180   70.3210 C.3    44  GLN44       0.0908
     47  CD       -29.2940   52.9220   71.7470 C.2    44  GLN44       0.2608
     48  OE1      -30.4100   52.7570   72.2420 O.2    44  GLN44      -0.2717
     49  NE2      -28.1680   52.6930   72.4190 N.am   44  GLN44      -0.0878
     50  N        -29.9370   53.8100   67.0770 N.am   45  SER45      -0.1950
     51  CA       -30.8240   53.1230   66.1400 C.3    45  SER45       0.1924
     52  C        -31.8730   52.3650   66.9400 C.2    45  SER45       0.2314
     53  O        -31.6040   51.9250   68.0560 O.2    45  SER45      -0.2863
     54  CB       -30.0350   52.1370   65.2740 C.3    45  SER45       0.2116
     55  OG       -30.8940   51.4000   64.4190 O.3    45  SER45      -0.2180
     56  N        -30.5130   47.4870   67.2860 N.3    48  ASN48      -0.1240
     57  CA       -29.0840   47.2890   67.4100 C.3    48  ASN48       0.1653
     58  C        -28.7870   45.8090   67.6010 C.2    48  ASN48       0.2266
     59  O        -29.3730   45.1540   68.4660 O.2    48  ASN48      -0.2867
     60  CB       -28.5430   48.0790   68.6040 C.3    48  ASN48       0.1155
     61  CG       -28.5390   49.5700   68.3590 C.2    48  ASN48       0.2627
     62  OD1      -27.7340   50.0760   67.5850 O.2    48  ASN48      -0.2716
     63  ND2      -29.4550   50.2810   69.0060 N.am   48  ASN48      -0.0877
     64  N        -27.9220   59.2120   59.9260 N.3   218  TYR218     -0.1241
     65  CA       -26.9320   58.1610   59.7440 C.3   218  TYR218      0.1605
     66  C        -27.5740   56.9020   59.1620 C.2   218  TYR218      0.2264
     67  O        -28.4410   56.2890   59.7840 O.2   218  TYR218     -0.2867
     68  CB       -26.2630   57.8060   61.0690 C.3   218  TYR218      0.0534
     69  CG       -25.1060   56.8410   60.9090 C.ar  218  TYR218     -0.0201
     70  CD1      -23.8110   57.3080   60.6620 C.ar  218  TYR218     -0.0009
     71  CD2      -25.3080   55.4620   60.9830 C.ar  218  TYR218     -0.0009
     72  CE1      -22.7450   56.4260   60.4960 C.ar  218  TYR218      0.0417
     73  CE2      -24.2480   54.5700   60.8160 C.ar  218  TYR218      0.0417
     74  CZ       -22.9720   55.0590   60.5740 C.ar  218  TYR218      0.1957
     75  OH       -21.9240   54.1810   60.4200 O.3   218  TYR218     -0.2866
     76  N        -17.4590   51.5000   66.0940 N.3   320  PRO320     -0.2116
     77  CA       -17.3260   52.9000   65.6680 C.3   320  PRO320      0.1372
     78  C        -15.9030   53.4160   65.8940 C.2   320  PRO320      0.2244
     79  O        -15.3920   54.2240   65.1190 O.2   320  PRO320     -0.2868
     80  CB       -18.3520   53.6230   66.5380 C.3   320  PRO320      0.0268
     81  CG       -19.4280   52.5980   66.6840 C.3   320  PRO320      0.0207
     82  CD       -18.6130   51.3500   66.9960 C.3   320  PRO320      0.0892
@<TRIPOS>BOND
     1    66    65    1
     2    66    67    2
     3    65    64    1
     4    65    68    1
     5    75    74    1
     6    72    74   ar
     7    72    70   ar
     8    74    73   ar
     9    70    69   ar
    10    73    71   ar
    11    69    71   ar
    12    69    68    1
    13    21    22    1
    14    24    23    2
    15    17    16    2
    16    23    22    1
    17    16    15    1
    18    22    25    1
    19    19    18    1
    20    19    20    1
    21    12    11    1
    22    13    11    1
    23    30    28   ar
    24    30    31   ar
    25    28    26   ar
    26    18    15    1
    27    31    29   ar
    28    15    14    1
    29    26    25    1
    30    26    27   ar
    31    55    54    1
    32    20    14    1
    33    11     8    1
    34    14     9   am
    35    29    27   ar
    36    79    78    2
    37    54    51    1
    38     9    10    2
    39     9     8    1
    40    77    78    1
    41    77    76    1
    42    77    80    1
    43     8     7    1
    44    76    82    1
    45    51    52    1
    46    51    50    1
    47    80    81    1
    48    81    82    1
    49     7     3   am
    50    52    53    2
    51    50    43   am
    52    40    38   am
    53    56    57    1
    54    57    58    1
    55    57    60    1
    56    62    61    2
    57    58    59    2
    58     4     3    2
    59     3     2    1
    60    44    43    2
    61    43    42    1
    62    35    34    2
    63    36    37    1
    64    36    33    1
    65    38    37    1
    66    38    39    2
    67    32    33    1
    68    61    60    1
    69    61    63   am
    70    34    33    1
    71    34    41   am
    72    42    41    1
    73    42    45    1
    74     2     1    1
    75     2     5    1
    76     5     6    1
    77    45    46    1
    78    46    47    1
    79    47    48    2
    80    47    49   am
