@<TRIPOS>MOLECULE
tmp/1lrtA02.pdb
 187 177 0 0 0
SMALL
GASTEIGER

@<TRIPOS>ATOM
      1  N        -27.5020   35.7880   54.5170 N.3    56  ALA56      -0.1231
      2  CA       -28.0010   36.1470   53.2010 C.3    56  ALA56       0.1694
      3  C        -29.4410   35.7440   52.9070 C.2    56  ALA56       0.2592
      4  O        -29.9750   34.7690   53.4540 O.2    56  ALA56      -0.2718
      5  CB       -27.0610   35.5730   52.1220 C.3    56  ALA56       0.0304
      6  N        -30.0580   36.5110   52.0200 N.am   57  ILE57      -0.1966
      7  CA       -31.4260   36.2700   51.6090 C.3    57  ILE57       0.1727
      8  C        -31.3670   35.1820   50.5330 C.2    57  ILE57       0.2616
      9  O        -31.5490   35.4410   49.3360 O.2    57  ILE57      -0.2715
     10  CB       -32.0230   37.5760   51.0700 C.3    57  ILE57       0.0290
     11  CG1      -31.6460   38.7190   52.0290 C.3    57  ILE57       0.0022
     12  CG2      -33.5400   37.4520   50.9320 C.3    57  ILE57       0.0023
     13  CD1      -32.1540   40.0820   51.6240 C.3    57  ILE57       0.0001
     14  N        -31.1230   33.9540   50.9800 N.am   58  MET58      -0.1977
     15  CA       -30.9730   32.8200   50.0750 C.3    58  MET58       0.1605
     16  C        -31.6490   31.5420   50.5800 C.2    58  MET58       0.2287
     17  O        -31.5910   31.2320   51.7660 O.2    58  MET58      -0.2864
     18  CB       -29.4760   32.5420   49.8770 C.3    58  MET58       0.0413
     19  CG       -28.6560   33.7800   49.5150 C.3    58  MET58       0.0598
     20  SD       -26.8870   33.4660   49.3240 S.3    58  MET58      -0.1393
     21  CE       -26.9330   32.3900   47.8790 C.3    58  MET58       0.0692
     22  N        -34.5880   42.7270   48.0250 N.3   130  ASP130     -0.1239
     23  CA       -33.5770   41.8290   47.4910 C.3   130  ASP130      0.1674
     24  C        -33.3480   41.9990   45.9790 C.2   130  ASP130      0.2266
     25  O        -34.2420   41.7350   45.1730 O.2   130  ASP130     -0.2867
     26  CB       -34.0310   40.4040   47.8380 C.3   130  ASP130      0.1410
     27  CG       -33.0340   39.3510   47.4440 C.2   130  ASP130      0.3668
     28  OD1      -31.8530   39.6840   47.2270 O.co2 130  ASP130     -0.2456
     29  OD2      -33.4460   38.1770   47.3640 O.co2 130  ASP130     -0.2456
     30  N        -28.4050   47.2650   46.8450 N.3   160  ASN160     -0.1240
     31  CA       -27.1750   46.5840   46.5250 C.3   160  ASN160      0.1653
     32  C        -26.6650   47.4600   45.4140 C.2   160  ASN160      0.2266
     33  O        -27.0100   47.3290   44.2390 O.2   160  ASN160     -0.2867
     34  CB       -27.3480   45.1440   46.0770 C.3   160  ASN160      0.1155
     35  CG       -27.1690   44.1740   47.2300 C.2   160  ASN160      0.2627
     36  OD1      -28.0400   44.0680   48.0790 O.2   160  ASN160     -0.2716
     37  ND2      -26.0160   43.4890   47.2850 N.am  160  ASN160     -0.0877
     38  N        -27.5480   48.1490   51.2380 N.3   179  LYS179     -0.1245
     39  CA       -26.6760   47.0040   51.0610 C.3   179  LYS179      0.1561
     40  C        -25.7340   47.1870   49.8750 C.2   179  LYS179      0.2260
     41  O        -26.1450   47.5860   48.7800 O.2   179  LYS179     -0.2867
     42  CB       -27.5360   45.7340   50.9090 C.3   179  LYS179      0.0271
     43  CG       -26.7950   44.4360   51.2030 C.3   179  LYS179      0.0035
     44  CD       -27.6990   43.4100   51.8970 C.3   179  LYS179      0.0206
     45  CE       -28.8630   42.9740   51.0020 C.3   179  LYS179      0.1093
     46  NZ       -28.3640   42.3110   49.7640 N.3   179  LYS179     -0.1314
     47  N        -22.7270   45.5790   47.2920 N.3   181  GLY181     -0.1225
     48  CA       -22.1850   44.3480   46.7560 C.3   181  GLY181      0.1811
     49  C        -22.7490   43.8030   45.4630 C.2   181  GLY181      0.2280
     50  O        -23.8790   43.3300   45.4190 O.2   181  GLY181     -0.2866
     51  N        -21.2920   41.3140   42.3800 N.3   183  GLY183     -0.1225
     52  CA       -20.2380   40.5280   41.7650 C.3   183  GLY183      0.1811
     53  C        -19.1740   39.9920   42.7060 C.2   183  GLY183      0.2280
     54  O        -18.3050   39.2230   42.2880 O.2   183  GLY183     -0.2866
     55  N        -19.8790   38.2040   45.4470 N.3   185  GLY185     -0.1210
     56  CA       -20.3220   36.9550   46.0420 C.3   185  GLY185      0.1956
     57  C        -19.4650   35.7760   45.6230 C.2   185  GLY185      0.2613
     58  O        -18.8880   35.7800   44.5340 O.2   185  GLY185     -0.2717
     59  N        -19.3890   34.7630   46.4820 N.am  186  SER186     -0.1938
     60  CA       -18.5940   33.5690   46.2050 C.3   186  SER186      0.2055
     61  C        -19.1550   32.7310   45.0590 C.2   186  SER186      0.2643
     62  O        -18.4010   32.1120   44.3100 O.2   186  SER186     -0.2714
     63  CB       -18.4980   32.6960   47.4580 C.3   186  SER186      0.2130
     64  OG       -19.7730   32.2050   47.8340 O.3   186  SER186     -0.2179
     65  N        -20.4790   32.7090   44.9290 N.am  187  ILE187     -0.1963
     66  CA       -21.1320   31.9340   43.8790 C.3   187  ILE187      0.1727
     67  C        -21.4290   32.7450   42.6230 C.2   187  ILE187      0.2616
     68  O        -22.3000   32.3800   41.8320 O.2   187  ILE187     -0.2715
     69  CB       -22.4490   31.3240   44.3890 C.3   187  ILE187      0.0290
     70  CG1      -23.2330   32.3830   45.1660 C.3   187  ILE187      0.0022
     71  CG2      -22.1590   30.0950   45.2390 C.3   187  ILE187      0.0023
     72  CD1      -24.4140   31.8360   45.9140 C.3   187  ILE187      0.0001
     73  N        -20.7000   33.8390   42.4410 N.am  188  CYS188     -0.1968
     74  CA       -20.8850   34.6960   41.2800 C.3   188  CYS188      0.1712
     75  C        -19.9750   34.2620   40.1310 C.2   188  CYS188      0.2296
     76  O        -18.7480   34.3410   40.2290 O.2   188  CYS188     -0.2864
     77  CB       -20.5940   36.1510   41.6490 C.3   188  CYS188      0.0983
     78  SG       -20.9650   37.3220   40.3280 S.3   188  CYS188     -0.0798
     79  N        -22.2000   43.2040   51.6630 N.3   224  ASP224     -0.1225
     80  CA       -22.7750   41.9150   51.3100 C.3   224  ASP224      0.1805
     81  C        -21.9410   41.0790   50.3420 C.2   224  ASP224      0.2598
     82  O        -21.7480   41.4500   49.1820 O.2   224  ASP224     -0.2718
     83  CB       -24.1810   42.1500   50.7400 C.3   224  ASP224      0.1424
     84  CG       -24.8540   40.8740   50.2770 C.2   224  ASP224      0.3668
     85  OD1      -24.4140   39.7820   50.6830 O.co2 224  ASP224     -0.2456
     86  OD2      -25.8340   40.9640   49.5100 O.co2 224  ASP224     -0.2456
     87  N        -21.4530   39.9420   50.8290 N.am  225  GLY225     -0.1942
     88  CA       -20.6600   39.0590   49.9920 C.3   225  GLY225      0.2014
     89  C        -19.1650   39.3260   49.9450 C.2   225  GLY225      0.2639
     90  O        -18.6770   40.3780   50.3720 O.2   225  GLY225     -0.2714
     91  N        -18.4290   38.3530   49.4240 N.am  226  GLY226     -0.1939
     92  CA       -16.9910   38.5010   49.3000 C.3   226  GLY226      0.2014
     93  C        -16.1670   38.1450   50.5220 C.2   226  GLY226      0.2638
     94  O        -14.9430   38.2410   50.4720 O.2   226  GLY226     -0.2714
     95  N        -16.8160   37.7490   51.6140 N.am  227  ILE227     -0.1977
     96  CA       -16.0950   37.3730   52.8290 C.3   227  ILE227      0.1596
     97  C        -15.5640   35.9390   52.7140 C.2   227  ILE227      0.2287
     98  O        -16.3370   34.9770   52.7230 O.2   227  ILE227     -0.2864
     99  CB       -17.0030   37.4540   54.0880 C.3   227  ILE227      0.0276
    100  CG1      -17.4700   38.8980   54.3210 C.3   227  ILE227      0.0022
    101  CG2      -16.2560   36.9200   55.3060 C.3   227  ILE227      0.0022
    102  CD1      -16.3540   39.8880   54.6110 C.3   227  ILE227      0.0001
    103  N        -23.2320   40.9740   55.5240 N.3   245  MET245     -0.1230
    104  CA       -24.1210   39.9060   55.0940 C.3   245  MET245      0.1702
    105  C        -23.2690   38.8040   54.4830 C.2   245  MET245      0.2592
    106  O        -22.3560   39.0680   53.6940 O.2   245  MET245     -0.2718
    107  CB       -25.1600   40.3990   54.0840 C.3   245  MET245      0.0401
    108  CG       -26.1260   39.2950   53.6150 C.3   245  MET245      0.0596
    109  SD       -27.5390   39.8860   52.6360 S.3   245  MET245     -0.1393
    110  CE       -28.6390   40.3870   53.9550 C.3   245  MET245      0.0692
    111  N        -23.5560   37.5670   54.8710 N.am  246  LEU246     -0.1966
    112  CA       -22.8080   36.4330   54.3630 C.3   246  LEU246      0.1728
    113  C        -23.7450   35.3110   53.9490 C.2   246  LEU246      0.2617
    114  O        -24.8240   35.1500   54.5260 O.2   246  LEU246     -0.2715
    115  CB       -21.8390   35.9130   55.4330 C.3   246  LEU246      0.0311
    116  CG       -20.8650   36.9020   56.0880 C.3   246  LEU246      0.0022
    117  CD1      -21.5820   37.6530   57.2100 C.3   246  LEU246      0.0001
    118  CD2      -19.6710   36.1540   56.6600 C.3   246  LEU246      0.0001
    119  N        -23.3250   34.5510   52.9400 N.am  247  GLY247     -0.1940
    120  CA       -24.1000   33.4170   52.4670 C.3   247  GLY247      0.2014
    121  C        -23.2980   32.1410   52.6880 C.2   247  GLY247      0.2639
    122  O        -23.6570   31.2940   53.5120 O.2   247  GLY247     -0.2714
    123  N        -22.1870   32.0220   51.9680 N.am  248  ARG248     -0.1963
    124  CA       -21.3070   30.8620   52.0580 C.3   248  ARG248      0.1729
    125  C        -20.9480   30.5090   53.5060 C.2   248  ARG248      0.2616
    126  O        -21.0730   29.3530   53.9260 O.2   248  ARG248     -0.2715
    127  CB       -20.0230   31.1310   51.2710 C.3   248  ARG248      0.0348
    128  CG       -19.2010   29.8880   50.9650 C.3   248  ARG248      0.0492
    129  CD       -17.8100   30.2620   50.4560 C.3   248  ARG248      0.2205
    130  NE       -16.9050   30.5750   51.5590 N.pl3 248  ARG248     -0.0865
    131  CZ       -16.3480   29.6550   52.3440 C.cat 248  ARG248      0.5346
    132  NH1      -16.6000   28.3680   52.1370 N.pl3 248  ARG248      0.1354
    133  NH2      -15.5500   30.0150   53.3430 N.pl3 248  ARG248      0.1354
    134  N        -20.4940   31.5120   54.2530 N.am  249  TYR249     -0.1974
    135  CA       -20.0980   31.3510   55.6530 C.3   249  TYR249      0.1639
    136  C        -21.1080   30.5580   56.4880 C.2   249  TYR249      0.2290
    137  O        -20.7320   29.6320   57.2110 O.2   249  TYR249     -0.2864
    138  CB       -19.8920   32.7310   56.2930 C.3   249  TYR249      0.0560
    139  CG       -19.4410   32.6930   57.7410 C.ar  249  TYR249     -0.0198
    140  CD1      -18.1200   32.3780   58.0750 C.ar  249  TYR249     -0.0009
    141  CD2      -20.3380   32.9640   58.7800 C.ar  249  TYR249     -0.0009
    142  CE1      -17.7060   32.3310   59.4040 C.ar  249  TYR249      0.0417
    143  CE2      -19.9330   32.9220   60.1170 C.ar  249  TYR249      0.0417
    144  CZ       -18.6160   32.6020   60.4200 C.ar  249  TYR249      0.1957
    145  OH       -18.2100   32.5290   61.7300 O.3   249  TYR249     -0.2866
    146  N        -25.0180   24.5110   48.3370 N.3   271  TYR271     -0.1241
    147  CA       -25.0850   25.9630   48.3500 C.3   271  TYR271      0.1605
    148  C        -25.2270   26.4560   46.9200 C.2   271  TYR271      0.2264
    149  O        -24.3200   26.2930   46.1070 O.2   271  TYR271     -0.2867
    150  CB       -23.8170   26.5370   48.9850 C.3   271  TYR271      0.0534
    151  CG       -23.7790   28.0450   49.0410 C.ar  271  TYR271     -0.0201
    152  CD1      -24.8080   28.7690   49.6380 C.ar  271  TYR271     -0.0009
    153  CD2      -22.7120   28.7510   48.4920 C.ar  271  TYR271     -0.0009
    154  CE1      -24.7750   30.1610   49.6800 C.ar  271  TYR271      0.0417
    155  CE2      -22.6680   30.1370   48.5310 C.ar  271  TYR271      0.0417
    156  CZ       -23.7010   30.8370   49.1210 C.ar  271  TYR271      0.1957
    157  OH       -23.6670   32.2100   49.1250 O.3   271  TYR271     -0.2866
    158  N        -26.8140   29.7900   44.3320 N.3   273  GLY273     -0.1210
    159  CA       -27.1990   31.1880   44.3250 C.3   273  GLY273      0.1956
    160  C        -28.6630   31.4150   44.0050 C.2   273  GLY273      0.2612
    161  O        -29.3150   30.5660   43.3930 O.2   273  GLY273     -0.2717
    162  N        -29.1810   32.5640   44.4340 N.am  274  GLU274     -0.1965
    163  CA       -30.5690   32.9320   44.1850 C.3   274  GLU274      0.1733
    164  C        -30.7810   33.3370   42.7340 C.2   274  GLU274      0.2616
    165  O        -31.9160   33.4390   42.2660 O.2   274  GLU274     -0.2715
    166  CB       -30.9790   34.0880   45.0920 C.3   274  GLU274      0.0429
    167  CG       -31.1910   33.6840   46.5240 C.3   274  GLU274      0.1163
    168  CD       -32.2410   32.6100   46.6530 C.2   274  GLU274      0.3649
    169  OE1      -33.4140   32.8860   46.3310 O.co2 274  GLU274     -0.2457
    170  OE2      -31.8900   31.4880   47.0670 O.co2 274  GLU274     -0.2457
    171  N        -29.6830   33.5790   42.0280 N.am  275  GLY275     -0.1955
    172  CA       -29.7770   33.9640   40.6340 C.3   275  GLY275      0.1869
    173  C        -29.7530   32.7480   39.7330 C.2   275  GLY275      0.2309
    174  O        -29.8290   32.8710   38.5150 O.2   275  GLY275     -0.2863
    175  N        -27.7130   34.1200   37.0920 N.3   284  GLU284     -0.1231
    176  CA       -26.6830   34.8960   37.7780 C.3   284  GLU284      0.1699
    177  C        -25.8260   34.0830   38.7480 C.2   284  GLU284      0.2592
    178  O        -24.8090   34.5790   39.2430 O.2   284  GLU284     -0.2718
    179  CB       -27.3240   36.0540   38.5520 C.3   284  GLU284      0.0402
    180  CG       -28.8200   36.2260   38.3260 C.3   284  GLU284      0.1161
    181  CD       -29.1400   37.0840   37.1190 C.2   284  GLU284      0.3649
    182  OE1      -28.8710   38.3040   37.1690 O.co2 284  GLU284     -0.2457
    183  OE2      -29.6580   36.5380   36.1220 O.co2 284  GLU284     -0.2457
    184  N        -26.2220   32.8410   39.0190 N.am  285  GLY285     -0.1957
    185  CA       -25.4570   32.0380   39.9570 C.3   285  GLY285      0.1869
    186  C        -25.1540   30.5980   39.5920 C.2   285  GLY285      0.2309
    187  O        -25.4660   30.1320   38.4950 O.2   285  GLY285     -0.2863
@<TRIPOS>BOND
     1   183   181   ar
     2   175   176    1
     3   181   182   ar
     4   181   180    1
     5   176   179    1
     6   176   177    1
     7   180   179    1
     8   187   186    2
     9   174   173    2
    10   177   184   am
    11   177   178    2
    12   184   185    1
    13   186   185    1
    14   173   172    1
    15    75    76    2
    16    75    74    1
    17    78    77    1
    18   172   171    1
    19    74    77    1
    20    74    73    1
    21    52    51    1
    22    52    53    1
    23    68    67    2
    24   171   164   am
    25   165   164    2
    26    54    53    2
    27    73    67   am
    28    67    66    1
    29   164   163    1
    30   161   160    2
    31    66    69    1
    32    66    65    1
    33   160   159    1
    34   160   162   am
    35   163   162    1
    36   163   166    1
    37    33    32    2
    38    62    61    2
    39   159   158    1
    40    69    70    1
    41    69    71    1
    42    58    57    2
    43    65    61   am
    44    61    60    1
    45   166   167    1
    46    70    72    1
    47    25    24    2
    48    32    31    1
    49    50    49    2
    50    55    56    1
    51    49    48    1
    52    57    56    1
    53    57    59   am
    54    24    23    1
    55    34    31    1
    56    34    35    1
    57   149   148    2
    58    60    59    1
    59    60    63    1
    60   169   168   ar
    61   167   168    1
    62    31    30    1
    63   168   170   ar
    64    48    47    1
    65   148   147    1
    66    28    27   ar
    67    35    37   am
    68    35    36    2
    69    29    27   ar
    70    27    26    1
    71    63    64    1
    72    23    26    1
    73    23    22    1
    74    21    20    1
    75   146   147    1
    76   147   150    1
    77   153   155   ar
    78   153   151   ar
    79   155   156   ar
    80    41    40    2
    81   150   151    1
    82   151   152   ar
    83   156   157    1
    84   156   154   ar
    85    82    81    2
    86    92    91    1
    87    92    93    1
    88    20    19    1
    89     9     8    2
    90    91    89   am
    91    86    84   ar
    92    19    18    1
    93   152   154   ar
    94    46    45    1
    95    40    39    1
    96    18    15    1
    97    89    88    1
    98    89    90    2
    99    88    87    1
   100    15    16    1
   101    15    14    1
   102    84    85   ar
   103    84    83    1
   104    81    87   am
   105    81    80    1
   106   129   128    1
   107   129   130    1
   108    94    93    2
   109    93    95   am
   110     8    14   am
   111     8     7    1
   112    16    17    2
   113    83    80    1
   114    42    39    1
   115    42    43    1
   116    12    10    1
   117   128   127    1
   118    45    44    1
   119    39    38    1
   120    10     7    1
   121    10    11    1
   122    43    44    1
   123   127   124    1
   124    80    79    1
   125   130   131    2
   126     7     6    1
   127    95    96    1
   128    13    11    1
   129   123   124    1
   130   123   121   am
   131     6     3   am
   132   124   125    1
   133     5     2    1
   134   132   131    1
   135   131   133    1
   136   120   121    1
   137   120   119    1
   138   109   108    1
   139   109   110    1
   140   121   122    2
   141    97    98    2
   142    97    96    1
   143    96    99    1
   144     3     2    1
   145     3     4    2
   146   119   113   am
   147     2     1    1
   148   125   126    2
   149   125   134   am
   150   108   107    1
   151   106   105    2
   152   113   112    1
   153   113   114    2
   154   107   104    1
   155    99   100    1
   156    99   101    1
   157   134   135    1
   158   100   102    1
   159   112   111    1
   160   112   115    1
   161   105   111   am
   162   105   104    1
   163   104   103    1
   164   115   116    1
   165   135   138    1
   166   135   136    1
   167   116   118    1
   168   116   117    1
   169   138   139    1
   170   136   137    2
   171   139   140   ar
   172   139   141   ar
   173   140   142   ar
   174   141   143   ar
   175   142   144   ar
   176   143   144   ar
   177   144   145    1
