@<TRIPOS>MOLECULE
tmp/1lrtA03.pdb
 179 168 0 0 0
SMALL
GASTEIGER

@<TRIPOS>ATOM
      1  N        -30.0580   36.5110   52.0200 N.3    57  ILE57      -0.1231
      2  CA       -31.4260   36.2700   51.6090 C.3    57  ILE57       0.1692
      3  C        -31.3670   35.1820   50.5330 C.2    57  ILE57       0.2591
      4  O        -31.5490   35.4410   49.3360 O.2    57  ILE57      -0.2718
      5  CB       -32.0230   37.5760   51.0700 C.3    57  ILE57       0.0266
      6  CG1      -31.6460   38.7190   52.0290 C.3    57  ILE57       0.0019
      7  CG2      -33.5400   37.4520   50.9320 C.3    57  ILE57       0.0020
      8  CD1      -32.1540   40.0820   51.6240 C.3    57  ILE57       0.0001
      9  N        -31.1230   33.9540   50.9800 N.am   58  MET58      -0.1979
     10  CA       -30.9730   32.8200   50.0750 C.3    58  MET58       0.1605
     11  C        -31.6490   31.5420   50.5800 C.2    58  MET58       0.2287
     12  O        -31.5910   31.2320   51.7660 O.2    58  MET58      -0.2864
     13  CB       -29.4760   32.5420   49.8770 C.3    58  MET58       0.0413
     14  CG       -28.6560   33.7800   49.5150 C.3    58  MET58       0.0598
     15  SD       -26.8870   33.4660   49.3240 S.3    58  MET58      -0.1393
     16  CE       -26.9330   32.3900   47.8790 C.3    58  MET58       0.0692
     17  N        -39.3740   41.5520   47.3080 N.3   108  ASN108     -0.1225
     18  CA       -38.9880   41.9020   45.9460 C.3   108  ASN108      0.1785
     19  C        -39.7530   43.1510   45.5220 C.2   108  ASN108      0.2598
     20  O        -40.6590   43.5970   46.2250 O.2   108  ASN108     -0.2718
     21  CB       -39.2640   40.7330   44.9940 C.3   108  ASN108      0.1169
     22  CG       -40.7260   40.3500   44.9450 C.2   108  ASN108      0.2627
     23  OD1      -41.5690   41.1440   44.5360 O.2   108  ASN108     -0.2716
     24  ND2      -41.0370   39.1240   45.3640 N.am  108  ASN108     -0.0877
     25  N        -39.3840   43.7260   44.3840 N.am  109  THR109     -0.1939
     26  CA       -40.0470   44.9360   43.9130 C.3   109  THR109      0.2028
     27  C        -41.2540   44.6440   43.0270 C.2   109  THR109      0.2642
     28  O        -41.7070   45.5140   42.2930 O.2   109  THR109     -0.2714
     29  CB       -39.0740   45.8340   43.1280 C.3   109  THR109      0.1808
     30  OG1      -38.4840   45.0800   42.0640 O.3   109  THR109     -0.2208
     31  CG2      -37.9860   46.3740   44.0460 C.3   109  THR109      0.0379
     32  N        -41.7720   43.4230   43.1110 N.am  110  ARG110     -0.1977
     33  CA       -42.9290   43.0080   42.3210 C.3   110  ARG110      0.1597
     34  C        -44.2210   42.8410   43.1250 C.2   110  ARG110      0.2287
     35  O        -45.2000   43.5500   42.8860 O.2   110  ARG110     -0.2864
     36  CB       -42.6480   41.6820   41.6100 C.3   110  ARG110      0.0334
     37  CG       -42.0010   41.7940   40.2470 C.3   110  ARG110      0.0492
     38  CD       -42.0690   40.4470   39.5440 C.3   110  ARG110      0.2205
     39  NE       -41.7320   40.5340   38.1260 N.pl3 110  ARG110     -0.0865
     40  CZ       -40.4940   40.6320   37.6570 C.cat 110  ARG110      0.5346
     41  NH1      -39.4710   40.6510   38.5000 N.pl3 110  ARG110      0.1354
     42  NH2      -40.2800   40.7110   36.3490 N.pl3 110  ARG110      0.1354
     43  N        -44.6550   43.2630   46.4780 N.3   112  PHE112     -0.1241
     44  CA       -44.5760   43.9000   47.7850 C.3   112  PHE112      0.1605
     45  C        -45.9440   44.3290   48.3230 C.2   112  PHE112      0.2264
     46  O        -46.1720   44.3250   49.5370 O.2   112  PHE112     -0.2867
     47  CB       -43.6370   45.1090   47.7150 C.3   112  PHE112      0.0534
     48  CG       -44.0320   46.1270   46.6830 C.ar  112  PHE112     -0.0203
     49  CD1      -45.0210   47.0710   46.9540 C.ar  112  PHE112     -0.0042
     50  CD2      -43.4350   46.1250   45.4260 C.ar  112  PHE112     -0.0042
     51  CE1      -45.4130   47.9990   45.9860 C.ar  112  PHE112     -0.0003
     52  CE2      -43.8170   47.0480   44.4470 C.ar  112  PHE112     -0.0003
     53  CZ       -44.8080   47.9860   44.7280 C.ar  112  PHE112     -0.0000
     54  N        -34.5880   42.7270   48.0250 N.3   130  ASP130     -0.1225
     55  CA       -33.5770   41.8290   47.4910 C.3   130  ASP130      0.1805
     56  C        -33.3480   41.9990   45.9790 C.2   130  ASP130      0.2598
     57  O        -34.2420   41.7350   45.1730 O.2   130  ASP130     -0.2718
     58  CB       -34.0310   40.4040   47.8380 C.3   130  ASP130      0.1424
     59  CG       -33.0340   39.3510   47.4440 C.2   130  ASP130      0.3668
     60  OD1      -31.8530   39.6840   47.2270 O.co2 130  ASP130     -0.2456
     61  OD2      -33.4460   38.1770   47.3640 O.co2 130  ASP130     -0.2456
     62  N        -32.1510   42.4420   45.5950 N.am  131  SER131     -0.1938
     63  CA       -31.8360   42.6480   44.1840 C.3   131  SER131      0.2055
     64  C        -30.3380   42.7380   43.9020 C.2   131  SER131      0.2644
     65  O        -29.5580   43.1430   44.7640 O.2   131  SER131     -0.2714
     66  CB       -32.5170   43.9280   43.6800 C.3   131  SER131      0.2130
     67  OG       -32.2240   44.1490   42.3070 O.3   131  SER131     -0.2179
     68  N        -29.9450   42.3620   42.6870 N.am  132  SER132     -0.1935
     69  CA       -28.5430   42.4170   42.2820 C.3   132  SER132      0.2055
     70  C        -28.2120   43.8210   41.7960 C.2   132  SER132      0.2643
     71  O        -27.0450   44.1620   41.5850 O.2   132  SER132     -0.2714
     72  CB       -28.2580   41.4070   41.1710 C.3   132  SER132      0.2130
     73  OG       -29.0650   41.6500   40.0360 O.3   132  SER132     -0.2179
     74  N        -29.2480   44.6300   41.6040 N.am  133  ASP133     -0.1971
     75  CA       -29.0590   46.0140   41.1780 C.3   133  ASP133      0.1709
     76  C        -30.1800   46.8630   41.7530 C.2   133  ASP133      0.2293
     77  O        -31.2540   46.9820   41.1610 O.2   133  ASP133     -0.2864
     78  CB       -29.0330   46.1130   39.6520 C.3   133  ASP133      0.1436
     79  CG       -28.9580   47.5510   39.1560 C.2   133  ASP133      0.3671
     80  OD1      -28.7780   48.4710   39.9820 O.co2 133  ASP133     -0.2456
     81  OD2      -29.0800   47.7600   37.9300 O.co2 133  ASP133     -0.2456
     82  N        -37.8140   51.1330   40.7500 N.3   138  TRP138     -0.1241
     83  CA       -38.6220   50.1240   41.4160 C.3   138  TRP138      0.1605
     84  C        -38.3650   50.0740   42.9180 C.2   138  TRP138      0.2264
     85  O        -39.2890   49.8260   43.6910 O.2   138  TRP138     -0.2867
     86  CB       -38.3900   48.7500   40.7860 C.3   138  TRP138      0.0550
     87  CG       -39.2260   48.5390   39.5710 C.ar  138  TRP138      0.0003
     88  CD1      -38.8040   48.1220   38.3420 C.ar  138  TRP138      0.0946
     89  CD2      -40.6330   48.7830   39.4520 C.ar  138  TRP138      0.0152
     90  NE1      -39.8610   48.1000   37.4630 N.ar  138  TRP138     -0.2442
     91  CE2      -40.9940   48.5020   38.1190 C.ar  138  TRP138      0.0810
     92  CE3      -41.6220   49.2150   40.3450 C.ar  138  TRP138      0.0012
     93  CZ2      -42.3040   48.6410   37.6510 C.ar  138  TRP138      0.0191
     94  CZ3      -42.9270   49.3530   39.8800 C.ar  138  TRP138      0.0001
     95  CH2      -43.2520   49.0670   38.5430 C.ar  138  TRP138      0.0015
     96  N        -28.4050   47.2650   46.8450 N.3   160  ASN160     -0.1240
     97  CA       -27.1750   46.5840   46.5250 C.3   160  ASN160      0.1653
     98  C        -26.6650   47.4600   45.4140 C.2   160  ASN160      0.2266
     99  O        -27.0100   47.3290   44.2390 O.2   160  ASN160     -0.2867
    100  CB       -27.3480   45.1440   46.0770 C.3   160  ASN160      0.1155
    101  CG       -27.1690   44.1740   47.2300 C.2   160  ASN160      0.2627
    102  OD1      -28.0400   44.0680   48.0790 O.2   160  ASN160     -0.2716
    103  ND2      -26.0160   43.4890   47.2850 N.am  160  ASN160     -0.0877
    104  N        -27.5480   48.1490   51.2380 N.3   179  LYS179     -0.1245
    105  CA       -26.6760   47.0040   51.0610 C.3   179  LYS179      0.1561
    106  C        -25.7340   47.1870   49.8750 C.2   179  LYS179      0.2260
    107  O        -26.1450   47.5860   48.7800 O.2   179  LYS179     -0.2867
    108  CB       -27.5360   45.7340   50.9090 C.3   179  LYS179      0.0271
    109  CG       -26.7950   44.4360   51.2030 C.3   179  LYS179      0.0035
    110  CD       -27.6990   43.4100   51.8970 C.3   179  LYS179      0.0206
    111  CE       -28.8630   42.9740   51.0020 C.3   179  LYS179      0.1093
    112  NZ       -28.3640   42.3110   49.7640 N.3   179  LYS179     -0.1314
    113  N        -22.7270   45.5790   47.2920 N.3   181  GLY181     -0.1210
    114  CA       -22.1850   44.3480   46.7560 C.3   181  GLY181      0.1956
    115  C        -22.7490   43.8030   45.4630 C.2   181  GLY181      0.2612
    116  O        -23.8790   43.3300   45.4190 O.2   181  GLY181     -0.2717
    117  N        -21.9570   43.8680   44.4020 N.am  182  ILE182     -0.1965
    118  CA       -22.3860   43.3280   43.1290 C.3   182  ILE182      0.1727
    119  C        -21.2030   42.6390   42.4800 C.2   182  ILE182      0.2616
    120  O        -20.2270   43.2930   42.1040 O.2   182  ILE182     -0.2715
    121  CB       -22.9180   44.4130   42.1680 C.3   182  ILE182      0.0290
    122  CG1      -24.1240   45.1240   42.7880 C.3   182  ILE182      0.0022
    123  CG2      -23.3240   43.7650   40.8470 C.3   182  ILE182      0.0023
    124  CD1      -24.7310   46.1830   41.8930 C.3   182  ILE182      0.0001
    125  N        -21.2920   41.3140   42.3800 N.am  183  GLY183     -0.1955
    126  CA       -20.2380   40.5280   41.7650 C.3   183  GLY183      0.1869
    127  C        -19.1740   39.9920   42.7060 C.2   183  GLY183      0.2309
    128  O        -18.3050   39.2230   42.2880 O.2   183  GLY183     -0.2863
    129  N        -19.8790   38.2040   45.4470 N.3   185  GLY185     -0.1225
    130  CA       -20.3220   36.9550   46.0420 C.3   185  GLY185      0.1811
    131  C        -19.4650   35.7760   45.6230 C.2   185  GLY185      0.2280
    132  O        -18.8880   35.7800   44.5340 O.2   185  GLY185     -0.2866
    133  N        -20.7000   33.8390   42.4410 N.3   188  CYS188     -0.1235
    134  CA       -20.8850   34.6960   41.2800 C.3   188  CYS188      0.1677
    135  C        -19.9750   34.2620   40.1310 C.2   188  CYS188      0.2270
    136  O        -18.7480   34.3410   40.2290 O.2   188  CYS188     -0.2867
    137  CB       -20.5940   36.1510   41.6490 C.3   188  CYS188      0.0956
    138  SG       -20.9650   37.3220   40.3280 S.3   188  CYS188     -0.0801
    139  N        -22.2000   43.2040   51.6630 N.3   224  ASP224     -0.1239
    140  CA       -22.7750   41.9150   51.3100 C.3   224  ASP224      0.1674
    141  C        -21.9410   41.0790   50.3420 C.2   224  ASP224      0.2266
    142  O        -21.7480   41.4500   49.1820 O.2   224  ASP224     -0.2867
    143  CB       -24.1810   42.1500   50.7400 C.3   224  ASP224      0.1410
    144  CG       -24.8540   40.8740   50.2770 C.2   224  ASP224      0.3668
    145  OD1      -24.4140   39.7820   50.6830 O.co2 224  ASP224     -0.2456
    146  OD2      -25.8340   40.9640   49.5100 O.co2 224  ASP224     -0.2456
    147  N        -29.1810   32.5640   44.4340 N.3   274  GLU274     -0.1231
    148  CA       -30.5690   32.9320   44.1850 C.3   274  GLU274      0.1699
    149  C        -30.7810   33.3370   42.7340 C.2   274  GLU274      0.2592
    150  O        -31.9160   33.4390   42.2660 O.2   274  GLU274     -0.2718
    151  CB       -30.9790   34.0880   45.0920 C.3   274  GLU274      0.0402
    152  CG       -31.1910   33.6840   46.5240 C.3   274  GLU274      0.1161
    153  CD       -32.2410   32.6100   46.6530 C.2   274  GLU274      0.3649
    154  OE1      -33.4140   32.8860   46.3310 O.co2 274  GLU274     -0.2457
    155  OE2      -31.8900   31.4880   47.0670 O.co2 274  GLU274     -0.2457
    156  N        -29.6830   33.5790   42.0280 N.am  275  GLY275     -0.1957
    157  CA       -29.7770   33.9640   40.6340 C.3   275  GLY275      0.1869
    158  C        -29.7530   32.7480   39.7330 C.2   275  GLY275      0.2309
    159  O        -29.8290   32.8710   38.5150 O.2   275  GLY275     -0.2863
    160  N        -35.1510   31.0930   41.1610 N.3   280  ARG280     -0.1245
    161  CA       -35.9130   32.0960   40.4300 C.3   280  ARG280      0.1563
    162  C        -37.2400   31.5120   39.9620 C.2   280  ARG280      0.2260
    163  O        -38.1930   32.2460   39.7030 O.2   280  ARG280     -0.2867
    164  CB       -35.1220   32.5790   39.2130 C.3   280  ARG280      0.0307
    165  CG       -33.7270   33.0870   39.5210 C.3   280  ARG280      0.0489
    166  CD       -32.9650   33.3310   38.2340 C.3   280  ARG280      0.2205
    167  NE       -33.0690   32.1780   37.3420 N.pl3 280  ARG280     -0.0865
    168  CZ       -32.4590   32.0780   36.1660 C.cat 280  ARG280      0.5346
    169  NH1      -31.6890   33.0650   35.7300 N.pl3 280  ARG280      0.1354
    170  NH2      -32.6250   30.9930   35.4210 N.pl3 280  ARG280      0.1354
    171  N        -27.7130   34.1200   37.0920 N.3   284  GLU284     -0.1245
    172  CA       -26.6830   34.8960   37.7780 C.3   284  GLU284      0.1567
    173  C        -25.8260   34.0830   38.7480 C.2   284  GLU284      0.2260
    174  O        -24.8090   34.5790   39.2430 O.2   284  GLU284     -0.2867
    175  CB       -27.3240   36.0540   38.5520 C.3   284  GLU284      0.0388
    176  CG       -28.8200   36.2260   38.3260 C.3   284  GLU284      0.1160
    177  CD       -29.1400   37.0840   37.1190 C.2   284  GLU284      0.3649
    178  OE1      -28.8710   38.3040   37.1690 O.co2 284  GLU284     -0.2457
    179  OE2      -29.6580   36.5380   36.1220 O.co2 284  GLU284     -0.2457
@<TRIPOS>BOND
     1   170   168    1
     2   169   168    1
     3   179   177   ar
     4   168   167    2
     5    42    40    1
     6   171   172    1
     7   177   178   ar
     8   177   176    1
     9   167   166    1
    10    90    91   ar
    11    90    88   ar
    12    93    91   ar
    13    93    95   ar
    14    40    39    2
    15    40    41    1
    16   172   175    1
    17   172   173    1
    18    81    79   ar
    19    91    89   ar
    20    39    38    1
    21   166   165    1
    22   176   175    1
    23    88    87   ar
    24   159   158    2
    25    95    94   ar
    26   173   174    2
    27    79    78    1
    28    79    80   ar
    29   164   165    1
    30   164   161    1
    31    89    87   ar
    32    89    92   ar
    33    38    37    1
    34    87    86    1
    35    78    75    1
    36   163   162    2
    37   158   157    1
    38    94    92   ar
    39   162   161    1
    40    73    72    1
    41   135   136    2
    42   135   134    1
    43    37    36    1
    44   138   137    1
    45   161   160    1
    46   157   156    1
    47    82    83    1
    48    86    83    1
    49   123   121    1
    50    77    76    2
    51    72    69    1
    52    75    74    1
    53    75    76    1
    54   134   137    1
    55   134   133    1
    56    83    84    1
    57    71    70    2
    58    74    70   am
    59    36    33    1
    60   126   125    1
    61   126   127    1
    62    70    69    1
    63   124   122    1
    64   156   149   am
    65    30    29    1
    66   120   119    2
    67   121   122    1
    68   121   118    1
    69   150   149    2
    70    69    68    1
    71   128   127    2
    72    28    27    2
    73    67    66    1
    74    33    32    1
    75    33    34    1
    76   125   119   am
    77   119   118    1
    78    68    64   am
    79   149   148    1
    80    35    34    2
    81    84    85    2
    82    27    32   am
    83    27    26    1
    84    29    26    1
    85    29    31    1
    86   118   117    1
    87    66    63    1
    88    64    63    1
    89    64    65    2
    90    26    25    1
    91    63    62    1
    92   148   147    1
    93   148   151    1
    94    99    98    2
    95    25    19   am
    96   117   115   am
    97    52    53   ar
    98    52    50   ar
    99   132   131    2
   100    23    22    2
   101    53    51   ar
   102    22    21    1
   103    22    24   am
   104    21    18    1
   105   151   152    1
   106    57    56    2
   107    98    97    1
   108   116   115    2
   109    50    48   ar
   110   129   130    1
   111   115   114    1
   112    19    18    1
   113    19    20    2
   114    62    56   am
   115   131   130    1
   116    18    17    1
   117    56    55    1
   118    51    49   ar
   119   100    97    1
   120   100   101    1
   121   154   153   ar
   122    43    44    1
   123   152   153    1
   124    97    96    1
   125   153   155   ar
   126    48    49   ar
   127    48    47    1
   128   114   113    1
   129    60    59   ar
   130   101   103   am
   131   101   102    2
   132    61    59   ar
   133    59    58    1
   134    55    58    1
   135    55    54    1
   136    47    44    1
   137    44    45    1
   138    16    15    1
   139    45    46    2
   140   107   106    2
   141   142   141    2
   142    15    14    1
   143     4     3    2
   144   146   144   ar
   145    14    13    1
   146   112   111    1
   147   106   105    1
   148    13    10    1
   149    10    11    1
   150    10     9    1
   151   144   145   ar
   152   144   143    1
   153   141   140    1
   154     3     9   am
   155     3     2    1
   156    11    12    2
   157   143   140    1
   158   108   105    1
   159   108   109    1
   160     7     5    1
   161   111   110    1
   162   105   104    1
   163     5     2    1
   164     5     6    1
   165   109   110    1
   166   140   139    1
   167     2     1    1
   168     8     6    1
