@<TRIPOS>MOLECULE
tmp/1lruA00.pdb
 149 143 0 0 0
SMALL
GASTEIGER

@<TRIPOS>ATOM
      1  N        -34.5120   36.1990   71.0570 N.3    41  GLU41      -0.1231
      2  CA       -35.4490   35.7660   70.0270 C.3    41  GLU41       0.1699
      3  C        -36.2280   34.5250   70.4100 C.2    41  GLU41       0.2592
      4  O        -36.9500   33.9650   69.5910 O.2    41  GLU41      -0.2718
      5  CB       -34.7260   35.5420   68.6970 C.3    41  GLU41       0.0402
      6  CG       -33.8620   36.7110   68.2460 C.3    41  GLU41       0.1161
      7  CD       -34.6370   38.0000   68.1110 C.2    41  GLU41       0.3649
      8  OE1      -35.6470   38.0100   67.3780 O.co2  41  GLU41      -0.2457
      9  OE2      -34.2400   39.0070   68.7420 O.co2  41  GLU41      -0.2457
     10  N        -36.0890   34.1040   71.6580 N.am   42  GLU42      -0.1966
     11  CA       -36.8010   32.9320   72.1510 C.3    42  GLU42       0.1733
     12  C        -36.4540   31.6540   71.3690 C.2    42  GLU42       0.2617
     13  O        -37.3080   30.8010   71.1200 O.2    42  GLU42      -0.2715
     14  CB       -38.3150   33.1920   72.1550 C.3    42  GLU42       0.0429
     15  CG       -38.7560   34.3320   73.0920 C.3    42  GLU42       0.1163
     16  CD       -40.2390   34.6850   72.9640 C.2    42  GLU42       0.3649
     17  OE1      -41.0890   33.7660   73.0120 O.co2  42  GLU42      -0.2457
     18  OE2      -40.5550   35.8870   72.8180 O.co2  42  GLU42      -0.2457
     19  N        -35.1860   31.5440   70.9840 N.am   43  GLY43      -0.1940
     20  CA       -34.7200   30.3740   70.2740 C.3    43  GLY43       0.2014
     21  C        -34.0450   29.4370   71.2570 C.2    43  GLY43       0.2639
     22  O        -33.5570   29.8640   72.3040 O.2    43  GLY43      -0.2714
     23  N        -34.0280   28.1530   70.9360 N.am   44  ILE44      -0.1963
     24  CA       -33.4030   27.1640   71.8020 C.3    44  ILE44       0.1727
     25  C        -31.9500   26.8570   71.3350 C.2    44  ILE44       0.2616
     26  O        -31.1420   26.2610   72.0700 O.2    44  ILE44      -0.2715
     27  CB       -34.3470   25.9080   71.9150 C.3    44  ILE44       0.0290
     28  CG1      -34.9430   25.8560   73.3180 C.3    44  ILE44       0.0022
     29  CG2      -33.6580   24.6130   71.5820 C.3    44  ILE44       0.0023
     30  CD1      -35.7790   27.0710   73.6590 C.3    44  ILE44       0.0001
     31  N        -31.6100   27.3370   70.1390 N.am   45  GLY45      -0.1955
     32  CA       -30.2770   27.1290   69.6070 C.3    45  GLY45       0.1869
     33  C        -29.9340   28.2340   68.6280 C.2    45  GLY45       0.2309
     34  O        -30.8400   28.9740   68.1990 O.2    45  GLY45      -0.2863
     35  N        -26.1930   32.6540   61.0160 N.3    50  GLN50      -0.1245
     36  CA       -27.4540   33.4160   61.0260 C.3    50  GLN50       0.1566
     37  C        -27.2310   34.8530   61.4200 C.2    50  GLN50       0.2260
     38  O        -28.0610   35.7160   61.1580 O.2    50  GLN50      -0.2867
     39  CB       -28.4140   32.8120   62.0320 C.3    50  GLN50       0.0367
     40  CG       -28.6430   31.3390   61.8710 C.3    50  GLN50       0.0905
     41  CD       -29.6670   30.8380   62.8480 C.2    50  GLN50       0.2608
     42  OE1      -29.3500   30.0640   63.7450 O.2    50  GLN50      -0.2717
     43  NE2      -30.9110   31.2880   62.6920 N.am   50  GLN50      -0.0878
     44  N        -39.8830   16.4620   64.2500 N.3    86  ILE86      -0.1231
     45  CA       -40.8320   17.2920   64.9820 C.3    86  ILE86       0.1692
     46  C        -41.0520   18.5020   64.0940 C.2    86  ILE86       0.2592
     47  O        -40.4220   18.6080   63.0240 O.2    86  ILE86      -0.2718
     48  CB       -40.3070   17.7320   66.3760 C.3    86  ILE86       0.0266
     49  CG1      -38.9950   18.5330   66.2410 C.3    86  ILE86       0.0019
     50  CG2      -40.1660   16.4880   67.3050 C.3    86  ILE86       0.0020
     51  CD1      -38.4320   19.0070   67.5810 C.3    86  ILE86       0.0001
     52  N        -41.9970   19.3620   64.4630 N.am   87  GLU87      -0.1966
     53  CA       -42.2590   20.5630   63.6690 C.3    87  GLU87       0.1733
     54  C        -41.2240   21.5570   64.1440 C.2    87  GLU87       0.2616
     55  O        -41.1580   21.8460   65.3320 O.2    87  GLU87      -0.2715
     56  CB       -43.6860   21.1050   63.8800 C.3    87  GLU87       0.0429
     57  CG       -44.8000   20.2120   63.2800 C.3    87  GLU87       0.1163
     58  CD       -46.1990   20.8580   63.2330 C.2    87  GLU87       0.3649
     59  OE1      -46.3470   22.0830   63.3650 O.co2  87  GLU87      -0.2457
     60  OE2      -47.1730   20.1150   63.0330 O.co2  87  GLU87      -0.2457
     61  N        -40.3580   21.9900   63.2320 N.am   88  GLU88      -0.1963
     62  CA       -39.2700   22.9090   63.5570 C.3    88  GLU88       0.1733
     63  C        -39.5210   24.2620   62.9750 C.2    88  GLU88       0.2617
     64  O        -40.0940   24.3950   61.8980 O.2    88  GLU88      -0.2715
     65  CB       -37.9390   22.4260   62.9660 C.3    88  GLU88       0.0429
     66  CG       -37.4950   21.0460   63.3820 C.3    88  GLU88       0.1163
     67  CD       -36.1660   20.6370   62.7490 C.2    88  GLU88       0.3649
     68  OE1      -35.3890   21.5130   62.3110 O.co2  88  GLU88      -0.2457
     69  OE2      -35.8930   19.4300   62.7000 O.co2  88  GLU88      -0.2457
     70  N        -39.1100   25.2710   63.7130 N.am   89  GLY89      -0.1940
     71  CA       -39.2290   26.6210   63.2220 C.3    89  GLY89       0.2014
     72  C        -37.7940   27.1110   63.2140 C.2    89  GLY89       0.2639
     73  O        -36.9280   26.5410   63.8980 O.2    89  GLY89      -0.2714
     74  N        -37.5260   28.1580   62.4550 N.am   90  CYS90      -0.1953
     75  CA       -36.1790   28.7030   62.3860 C.3    90  CYS90       0.1843
     76  C        -36.2540   30.2220   62.4820 C.2    90  CYS90       0.2625
     77  O        -37.1530   30.8350   61.9000 O.2    90  CYS90      -0.2714
     78  CB       -35.5050   28.2650   61.0730 C.3    90  CYS90       0.0997
     79  SG       -33.9050   29.0860   60.6580 S.3    90  CYS90      -0.0797
     80  N        -35.3410   30.8260   63.2420 N.am   91  LEU91      -0.1977
     81  CA       -35.3170   32.2870   63.3800 C.3    91  LEU91       0.1596
     82  C        -35.0840   32.9530   62.0060 C.2    91  LEU91       0.2287
     83  O        -35.6060   34.0320   61.7280 O.2    91  LEU91      -0.2864
     84  CB       -34.2620   32.7190   64.4130 C.3    91  LEU91       0.0297
     85  CG       -34.4200   32.2500   65.8740 C.3    91  LEU91       0.0022
     86  CD1      -33.1760   32.5490   66.7030 C.3    91  LEU91       0.0001
     87  CD2      -35.6280   32.9210   66.5230 C.3    91  LEU91       0.0001
     88  N        -43.2310   26.9060   60.5420 N.3    97  ARG97      -0.1245
     89  CA       -42.8810   25.6250   61.1480 C.3    97  ARG97       0.1563
     90  C        -43.2140   24.4830   60.2270 C.2    97  ARG97       0.2260
     91  O        -44.2120   24.5360   59.4970 O.2    97  ARG97      -0.2867
     92  CB       -43.5990   25.4120   62.4750 C.3    97  ARG97       0.0307
     93  CG       -43.2090   26.4020   63.5220 C.3    97  ARG97       0.0489
     94  CD       -43.4490   25.8870   64.9080 C.3    97  ARG97       0.2205
     95  NE       -43.1550   26.9450   65.8640 N.pl3  97  ARG97      -0.0865
     96  CZ       -43.5820   26.9730   67.1240 C.cat  97  ARG97       0.5346
     97  NH1      -44.3280   25.9860   67.6130 N.pl3  97  ARG97       0.1354
     98  NH2      -43.2980   28.0240   67.8860 N.pl3  97  ARG97       0.1354
     99  N        -34.8260   15.8510   71.3930 N.3   125  LEU125     -0.1245
    100  CA       -34.7480   17.2150   70.9080 C.3   125  LEU125      0.1561
    101  C        -33.3240   17.7560   70.7280 C.2   125  LEU125      0.2260
    102  O        -33.0990   18.6140   69.8540 O.2   125  LEU125     -0.2867
    103  CB       -35.5450   18.1500   71.8200 C.3   125  LEU125      0.0270
    104  CG       -35.6210   19.6300   71.4330 C.3   125  LEU125      0.0019
    105  CD1      -36.2970   19.8350   70.0900 C.3   125  LEU125      0.0001
    106  CD2      -36.3630   20.3660   72.5210 C.3   125  LEU125      0.0001
    107  N        -31.9000   16.5640   67.3480 N.3   128  ILE128     -0.1231
    108  CA       -32.5530   17.2830   66.2560 C.3   128  ILE128      0.1692
    109  C        -32.0220   18.7180   66.1740 C.2   128  ILE128      0.2592
    110  O        -31.8410   19.2820   65.0880 O.2   128  ILE128     -0.2718
    111  CB       -34.0990   17.2930   66.5060 C.3   128  ILE128      0.0266
    112  CG1      -34.6850   15.9330   66.1520 C.3   128  ILE128      0.0019
    113  CG2      -34.7740   18.4170   65.7520 C.3   128  ILE128      0.0020
    114  CD1      -36.0830   15.7250   66.6810 C.3   128  ILE128      0.0001
    115  N        -31.8280   19.3210   67.3380 N.am  129  CYS129     -0.1970
    116  CA       -31.3200   20.6870   67.4420 C.3   129  CYS129      0.1712
    117  C        -29.8700   20.7850   66.9080 C.2   129  CYS129      0.2296
    118  O        -29.5700   21.6360   66.0640 O.2   129  CYS129     -0.2864
    119  CB       -31.3960   21.1380   68.9020 C.3   129  CYS129      0.0983
    120  SG       -30.7000   22.7510   69.1700 S.3   129  CYS129     -0.0798
    121  N        -29.7930   20.5990   63.2660 N.3   132  HIS132     -0.1226
    122  CA       -30.3230   21.7900   62.6310 C.3   132  HIS132      0.1752
    123  C        -29.3080   22.9520   62.6740 C.2   132  HIS132      0.2595
    124  O        -29.2120   23.7450   61.7300 O.2   132  HIS132     -0.2718
    125  CB       -31.6760   22.0910   63.3040 C.3   132  HIS132      0.0759
    126  CG       -32.1780   23.4830   63.1100 C.ar  132  HIS132      0.0818
    127  ND1      -33.3410   23.7700   62.4290 N.ar  132  HIS132     -0.2268
    128  CD2      -31.7000   24.6680   63.5610 C.ar  132  HIS132      0.1154
    129  CE1      -33.5590   25.0720   62.4680 C.ar  132  HIS132      0.1986
    130  NE2      -32.5760   25.6370   63.1520 N.ar  132  HIS132     -0.2212
    131  N        -28.5600   23.0630   63.7690 N.am  133  GLU133     -0.1979
    132  CA       -27.5460   24.1170   63.8770 C.3   133  GLU133      0.1602
    133  C        -26.3510   23.8070   62.9360 C.2   133  GLU133      0.2287
    134  O        -25.9480   24.6680   62.1530 O.2   133  GLU133     -0.2864
    135  CB       -27.0460   24.2710   65.3130 C.3   133  GLU133      0.0415
    136  CG       -28.1170   24.5020   66.3800 C.3   133  GLU133      0.1163
    137  CD       -29.0310   25.6680   66.0790 C.2   133  GLU133      0.3649
    138  OE1      -28.8540   26.3730   65.0560 O.co2 133  GLU133     -0.2457
    139  OE2      -29.9450   25.8760   66.8930 O.co2 133  GLU133     -0.2457
    140  N        -26.7260   24.7250   59.5590 N.3   136  HIS136     -0.1241
    141  CA       -26.5410   26.1390   59.3490 C.3   136  HIS136      0.1621
    142  C        -25.1300   26.5130   58.9340 C.2   136  HIS136      0.2264
    143  O        -24.9470   27.2910   57.9950 O.2   136  HIS136     -0.2867
    144  CB       -26.9570   26.9100   60.5980 C.3   136  HIS136      0.0745
    145  CG       -28.3380   27.4670   60.5150 C.ar  136  HIS136      0.0817
    146  ND1      -28.7280   28.3180   59.5040 N.ar  136  HIS136     -0.2268
    147  CD2      -29.4410   27.2690   61.2800 C.ar  136  HIS136      0.1154
    148  CE1      -30.0030   28.6180   59.6410 C.ar  136  HIS136      0.1986
    149  NE2      -30.4580   27.9930   60.7120 N.ar  136  HIS136     -0.2212
@<TRIPOS>BOND
     1   143   142    2
     2   142   141    1
     3   141   140    1
     4   141   144    1
     5    91    90    2
     6   146   148   ar
     7   146   145   ar
     8   148   149   ar
     9    90    89    1
    10   145   144    1
    11   145   147   ar
    12    88    89    1
    13    79    78    1
    14   149   147   ar
    15    35    36    1
    16    36    37    1
    17    36    39    1
    18    78    75    1
    19    89    92    1
    20    38    37    2
    21    83    82    2
    22   124   123    2
    23    40    39    1
    24    40    41    1
    25    64    63    2
    26    77    76    2
    27    82    81    1
    28   134   133    2
    29    68    67   ar
    30    75    74    1
    31    75    76    1
    32   127   129   ar
    33   127   126   ar
    34    74    72   am
    35   129   130   ar
    36    92    93    1
    37    76    80   am
    38   122   123    1
    39   122   121    1
    40   122   125    1
    41   123   131   am
    42    43    41   am
    43    69    67   ar
    44    67    66    1
    45    41    42    2
    46   133   132    1
    47    65    66    1
    48    65    62    1
    49    63    62    1
    50    63    70   am
    51    47    46    2
    52    60    58   ar
    53   126   125    1
    54   126   128   ar
    55   130   128   ar
    56    72    71    1
    57    72    73    2
    58    71    70    1
    59    61    62    1
    60    61    54   am
    61    58    57    1
    62    58    59   ar
    63    80    81    1
    64    57    56    1
    65    81    84    1
    66    93    94    1
    67    53    56    1
    68    53    54    1
    69    53    52    1
    70   131   132    1
    71   132   135    1
    72    46    52   am
    73    46    45    1
    74    54    55    2
    75    44    45    1
    76    84    85    1
    77    94    95    1
    78    45    48    1
    79   138   137   ar
    80   110   109    2
    81   135   136    1
    82   113   111    1
    83    95    96    2
    84    85    87    1
    85    85    86    1
    86   118   117    2
    87   137   136    1
    88   137   139   ar
    89   112   111    1
    90   112   114    1
    91   109   108    1
    92   109   115   am
    93    49    48    1
    94    49    51    1
    95   108   111    1
    96   108   107    1
    97    48    50    1
    98   117   116    1
    99    96    97    1
   100    96    98    1
   101   115   116    1
   102     8     7   ar
   103   116   119    1
   104     7     6    1
   105     7     9   ar
   106    34    33    2
   107     6     5    1
   108    33    32    1
   109     5     2    1
   110   119   120    1
   111     4     3    2
   112    32    31    1
   113   102   101    2
   114     2     3    1
   115     2     1    1
   116   105   104    1
   117    31    25   am
   118    20    19    1
   119    20    21    1
   120     3    10   am
   121   101   100    1
   122   100    99    1
   123   100   103    1
   124    23    21   am
   125    23    24    1
   126    19    12   am
   127    13    12    2
   128    21    22    2
   129    25    24    1
   130    25    26    2
   131    12    11    1
   132   104   103    1
   133   104   106    1
   134    29    27    1
   135    10    11    1
   136    24    27    1
   137    27    28    1
   138    11    14    1
   139    14    15    1
   140    18    16   ar
   141    16    17   ar
   142    16    15    1
   143    28    30    1
