@<TRIPOS>MOLECULE
tmp/1lrwA00.pdb
 202 194 0 0 0
SMALL
GASTEIGER

@<TRIPOS>ATOM
      1  N         27.2880   46.3160   48.9190 N.3    55  GLU55      -0.1245
      2  CA        27.3540   47.3900   49.9010 C.3    55  GLU55       0.1567
      3  C         28.7630   47.9550   50.0850 C.2    55  GLU55       0.2260
      4  O         29.7190   47.4750   49.4770 O.2    55  GLU55      -0.2867
      5  CB        26.8150   46.8870   51.2400 C.3    55  GLU55       0.0388
      6  CG        25.4010   46.3560   51.1320 C.3    55  GLU55       0.1160
      7  CD        24.7890   45.9900   52.4690 C.2    55  GLU55       0.3649
      8  OE1       23.5730   45.7030   52.4920 O.co2  55  GLU55      -0.2457
      9  OE2       25.5120   45.9860   53.4880 O.co2  55  GLU55      -0.2457
     10  N         21.2630   36.1240   57.4440 N.3   103  CYS103     -0.1221
     11  CA        19.8850   36.5740   57.5980 C.3   103  CYS103      0.1808
     12  C         19.3610   37.4680   56.5140 C.2   103  CYS103      0.2601
     13  O         18.2290   37.3250   56.0490 O.2   103  CYS103     -0.2717
     14  CB        19.7010   37.3840   58.8830 C.3   103  CYS103      0.0970
     15  SG        20.3290   39.1150   58.8780 S.3   103  CYS103     -0.0800
     16  N         20.2140   38.3900   56.1090 N.am  104  CYS104     -0.1956
     17  CA        19.7880   39.4310   55.2210 C.3   104  CYS104      0.1843
     18  C         20.6330   39.6810   53.9570 C.2   104  CYS104      0.2625
     19  O         21.0360   40.8210   53.6790 O.2   104  CYS104     -0.2714
     20  CB        19.7010   40.6580   56.1290 C.3   104  CYS104      0.0997
     21  SG        19.0370   40.3280   57.8340 S.3   104  CYS104     -0.0797
     22  N         20.8520   38.6070   53.1930 N.am  105  ASP105     -0.1971
     23  CA        21.6480   38.5870   51.9540 C.3   105  ASP105      0.1709
     24  C         23.1450   38.4190   52.2570 C.2   105  ASP105      0.2293
     25  O         23.6030   38.7130   53.3630 O.2   105  ASP105     -0.2864
     26  CB        21.4080   39.8430   51.1010 C.3   105  ASP105      0.1436
     27  CG        21.8410   39.6540   49.6450 C.2   105  ASP105      0.3671
     28  OD1       22.0930   38.4990   49.2370 O.co2 105  ASP105     -0.2456
     29  OD2       21.9160   40.6560   48.9000 O.co2 105  ASP105     -0.2456
     30  N         25.8510   40.0180   51.7610 N.3   107  VAL107     -0.1245
     31  CA        26.5790   41.2620   51.5740 C.3   107  VAL107      0.1561
     32  C         27.8680   41.3730   52.3930 C.2   107  VAL107      0.2260
     33  O         28.0960   40.6010   53.3250 O.2   107  VAL107     -0.2867
     34  CB        25.6650   42.4610   51.9280 C.3   107  VAL107      0.0252
     35  CG1       24.4740   42.5120   50.9850 C.3   107  VAL107      0.0019
     36  CG2       25.1720   42.3250   53.3560 C.3   107  VAL107      0.0019
     37  N         30.4240   44.7620   53.7690 N.3   109  ARG109     -0.1245
     38  CA        30.5100   46.2170   53.7870 C.3   109  ARG109      0.1563
     39  C         31.7980   46.9590   53.4960 C.2   109  ARG109      0.2260
     40  O         31.7950   48.1900   53.5120 O.2   109  ARG109     -0.2867
     41  CB        29.9100   46.7370   55.0880 C.3   109  ARG109      0.0307
     42  CG        28.4810   46.2820   55.2430 C.3   109  ARG109      0.0489
     43  CD        27.7270   46.9480   56.3740 C.3   109  ARG109      0.2205
     44  NE        26.4420   46.2820   56.5160 N.pl3 109  ARG109     -0.0865
     45  CZ        26.3100   45.0350   56.9530 C.cat 109  ARG109      0.5346
     46  NH1       25.1140   44.4770   57.0440 N.pl3 109  ARG109      0.1354
     47  NH2       27.3800   44.3520   57.3300 N.pl3 109  ARG109      0.1354
     48  N         29.9470   40.1180   57.9550 N.3   159  THR159     -0.1218
     49  CA        29.5480   40.9490   56.8200 C.3   159  THR159      0.1862
     50  C         30.1290   42.3340   56.9900 C.2   159  THR159      0.2287
     51  O         30.2330   43.0910   56.0310 O.2   159  THR159     -0.2866
     52  CB        28.0200   41.1040   56.7220 C.3   159  THR159      0.1770
     53  OG1       27.5280   41.6690   57.9400 O.3   159  THR159     -0.2211
     54  CG2       27.3530   39.7660   56.4720 C.3   159  THR159      0.0375
     55  N         28.0870   39.0100   63.3010 N.3   174  SER174     -0.1202
     56  CA        26.7130   38.9570   62.8260 C.3   174  SER174      0.2020
     57  C         26.0680   37.6570   63.2830 C.2   174  SER174      0.2619
     58  O         26.7660   36.6980   63.6010 O.2   174  SER174     -0.2717
     59  CB        26.6740   39.0210   61.2990 C.3   174  SER174      0.2103
     60  OG        27.2710   40.2080   60.8070 O.3   174  SER174     -0.2182
     61  N         24.7340   37.6300   63.3190 N.am  175  GLY175     -0.1942
     62  CA        24.0230   36.4210   63.7150 C.3   175  GLY175      0.2014
     63  C         22.9980   36.4780   64.8430 C.2   175  GLY175      0.2639
     64  O         22.5410   35.4320   65.2960 O.2   175  GLY175     -0.2714
     65  N         22.6270   37.6720   65.2990 N.am  176  ALA176     -0.1963
     66  CA        21.6520   37.7890   66.3840 C.3   176  ALA176      0.1728
     67  C         20.3320   37.0800   66.0570 C.2   176  ALA176      0.2616
     68  O         19.6390   36.5970   66.9580 O.2   176  ALA176     -0.2715
     69  CB        21.4020   39.2520   66.7170 C.3   176  ALA176      0.0334
     70  N         19.9880   37.0150   64.7720 N.am  177  GLU177     -0.1977
     71  CA        18.7660   36.3280   64.3550 C.3   177  GLU177      0.1602
     72  C         18.9360   34.8200   64.5370 C.2   177  GLU177      0.2287
     73  O         17.9750   34.0560   64.4560 O.2   177  GLU177     -0.2864
     74  CB        18.4400   36.6400   62.8920 C.3   177  GLU177      0.0415
     75  CG        17.6450   37.9220   62.6940 C.3   177  GLU177      0.1163
     76  CD        18.3570   39.1360   63.2410 C.2   177  GLU177      0.3649
     77  OE1       19.3770   39.5450   62.6560 O.co2 177  GLU177     -0.2457
     78  OE2       17.9020   39.6820   64.2640 O.co2 177  GLU177     -0.2457
     79  N         25.4770   41.6480   68.5960 N.3   241  THR241     -0.1218
     80  CA        26.4860   41.6840   67.5490 C.3   241  THR241      0.1862
     81  C         26.6440   43.0880   66.9630 C.2   241  THR241      0.2287
     82  O         25.6760   43.8550   66.8950 O.2   241  THR241     -0.2866
     83  CB        26.1070   40.7390   66.4140 C.3   241  THR241      0.1770
     84  OG1       24.7630   41.0220   66.0080 O.3   241  THR241     -0.2211
     85  CG2       26.2150   39.2890   66.8610 C.3   241  THR241      0.0375
     86  N         27.7770   44.8490   63.5590 N.3   243  TRP243     -0.1241
     87  CA        28.0600   44.6610   62.1480 C.3   243  TRP243      0.1605
     88  C         27.9770   45.9890   61.4120 C.2   243  TRP243      0.2264
     89  O         28.0200   46.0380   60.1830 O.2   243  TRP243     -0.2867
     90  CB        27.0570   43.6620   61.5450 C.3   243  TRP243      0.0550
     91  CG        25.6250   43.8840   61.9880 C.ar  243  TRP243      0.0003
     92  CD1       25.0630   43.4890   63.1660 C.ar  243  TRP243      0.0946
     93  CD2       24.6020   44.5810   61.2710 C.ar  243  TRP243      0.0152
     94  NE1       23.7510   43.8950   63.2310 N.ar  243  TRP243     -0.2442
     95  CE2       23.4410   44.5680   62.0800 C.ar  243  TRP243      0.0810
     96  CE3       24.5510   45.2150   60.0210 C.ar  243  TRP243      0.0012
     97  CZ2       22.2370   45.1670   61.6800 C.ar  243  TRP243      0.0191
     98  CZ3       23.3520   45.8090   59.6220 C.ar  243  TRP243      0.0001
     99  CH2       22.2110   45.7780   60.4540 C.ar  243  TRP243      0.0015
    100  N         20.7950   44.1460   68.4250 N.3   261  ASN261     -0.1240
    101  CA        19.5990   43.7560   69.1640 C.3   261  ASN261      0.1653
    102  C         19.7990   42.4540   69.9190 C.2   261  ASN261      0.2266
    103  O         20.7050   41.6760   69.6140 O.2   261  ASN261     -0.2867
    104  CB        18.4310   43.5660   68.2020 C.3   261  ASN261      0.1155
    105  CG        18.7230   42.5180   67.1500 C.2   261  ASN261      0.2627
    106  OD1       19.6400   42.6770   66.3470 O.2   261  ASN261     -0.2716
    107  ND2       17.9540   41.4350   67.1530 N.am  261  ASN261     -0.0877
    108  N         13.6490   37.7590   68.8020 N.3   265  TRP265     -0.1241
    109  CA        12.8100   38.9360   68.6080 C.3   265  TRP265      0.1605
    110  C         11.6670   38.8940   69.6040 C.2   265  TRP265      0.2264
    111  O         11.1210   39.9270   69.9830 O.2   265  TRP265     -0.2867
    112  CB        12.2770   38.9880   67.1770 C.3   265  TRP265      0.0550
    113  CG        13.3460   39.3140   66.1690 C.ar  265  TRP265      0.0003
    114  CD1       14.6970   39.1910   66.3370 C.ar  265  TRP265      0.0946
    115  CD2       13.1510   39.7500   64.8190 C.ar  265  TRP265      0.0152
    116  NE1       15.3510   39.5180   65.1780 N.ar  265  TRP265     -0.2442
    117  CE2       14.4280   39.8640   64.2290 C.ar  265  TRP265      0.0810
    118  CE3       12.0190   40.0540   64.0490 C.ar  265  TRP265      0.0012
    119  CZ2       14.6080   40.2650   62.9050 C.ar  265  TRP265      0.0191
    120  CZ3       12.1990   40.4550   62.7300 C.ar  265  TRP265      0.0001
    121  CH2       13.4850   40.5560   62.1730 C.ar  265  TRP265      0.0015
    122  N         13.4930   44.8950   67.1070 N.3   303  ASP303     -0.1239
    123  CA        14.6810   44.5790   66.3080 C.3   303  ASP303      0.1674
    124  C         15.3840   45.8600   65.8340 C.2   303  ASP303      0.2266
    125  O         15.9230   45.9160   64.7320 O.2   303  ASP303     -0.2867
    126  CB        14.3000   43.7250   65.0890 C.3   303  ASP303      0.1410
    127  CG        15.5080   43.3170   64.2580 C.2   303  ASP303      0.3668
    128  OD1       15.3240   42.9300   63.0850 O.co2 303  ASP303     -0.2456
    129  OD2       16.6410   43.3770   64.7770 O.co2 303  ASP303     -0.2456
    130  N         18.1190   46.9540   65.8750 N.3   305  ALA305     -0.1245
    131  CA        19.5510   46.6900   65.9910 C.3   305  ALA305      0.1562
    132  C         20.3310   48.0030   65.9940 C.2   305  ALA305      0.2260
    133  O         20.3320   48.7290   65.0050 O.2   305  ALA305     -0.2867
    134  CB        20.0050   45.8110   64.8400 C.3   305  ALA305      0.0290
    135  N         18.3130   53.0170   64.5110 N.3   331  ARG331     -0.1245
    136  CA        17.2050   52.3070   63.8960 C.3   331  ARG331      0.1563
    137  C         15.8740   52.5950   64.5710 C.2   331  ARG331      0.2260
    138  O         14.8370   52.5370   63.9190 O.2   331  ARG331     -0.2867
    139  CB        17.4530   50.8010   63.9230 C.3   331  ARG331      0.0307
    140  CG        18.1360   50.2660   62.6930 C.3   331  ARG331      0.0489
    141  CD        17.4310   49.0130   62.2390 C.3   331  ARG331      0.2205
    142  NE        18.3710   47.9120   62.1350 N.pl3 331  ARG331     -0.0865
    143  CZ        18.0230   46.6350   62.0760 C.cat 331  ARG331      0.5346
    144  NH1       18.9600   45.7040   61.9830 N.pl3 331  ARG331      0.1354
    145  NH2       16.7480   46.2880   62.1190 N.pl3 331  ARG331      0.1354
    146  N         18.8970   52.4600   58.3640 N.3   394  ASN394     -0.1225
    147  CA        19.5790   51.1820   58.4820 C.3   394  ASN394      0.1785
    148  C         21.0930   51.3370   58.3130 C.2   394  ASN394      0.2597
    149  O         21.6610   52.3770   58.6380 O.2   394  ASN394     -0.2718
    150  CB        19.0050   50.1670   57.4800 C.3   394  ASN394      0.1169
    151  CG        19.2440   48.7120   57.9080 C.2   394  ASN394      0.2627
    152  OD1       20.2800   48.1240   57.6050 O.2   394  ASN394     -0.2716
    153  ND2       18.2810   48.1380   58.6240 N.am  394  ASN394     -0.0877
    154  N         21.7270   50.2970   57.7920 N.am  395  GLN395     -0.1979
    155  CA        23.1710   50.2370   57.6110 C.3   395  GLN395      0.1601
    156  C         23.8780   51.3310   56.8060 C.2   395  GLN395      0.2287
    157  O         25.1070   51.4230   56.8410 O.2   395  GLN395     -0.2864
    158  CB        23.5130   48.8730   57.0210 C.3   395  GLN395      0.0394
    159  CG        22.9920   48.6820   55.6170 C.3   395  GLN395      0.0908
    160  CD        24.0490   48.9600   54.5800 C.2   395  GLN395      0.2608
    161  OE1       23.7610   49.5170   53.5230 O.2   395  GLN395     -0.2717
    162  NE2       25.2840   48.5620   54.8680 N.am  395  GLN395     -0.0878
    163  N         18.8640   53.5360   51.4310 N.3   476  TRP476     -0.1241
    164  CA        19.5880   52.5170   52.1790 C.3   476  TRP476      0.1605
    165  C         21.1190   52.5210   52.1430 C.2   476  TRP476      0.2264
    166  O         21.7450   51.9390   53.0250 O.2   476  TRP476     -0.2867
    167  CB        19.0640   51.1740   51.6850 C.3   476  TRP476      0.0550
    168  CG        19.2930   50.0050   52.5500 C.ar  476  TRP476      0.0003
    169  CD1       20.3560   49.1430   52.5140 C.ar  476  TRP476      0.0946
    170  CD2       18.3820   49.4810   53.5180 C.ar  476  TRP476      0.0152
    171  NE1       20.1520   48.1030   53.3950 N.ar  476  TRP476     -0.2442
    172  CE2       18.9480   48.2880   54.0240 C.ar  476  TRP476      0.0810
    173  CE3       17.1370   49.9000   54.0030 C.ar  476  TRP476      0.0012
    174  CZ2       18.3090   47.5090   54.9910 C.ar  476  TRP476      0.0191
    175  CZ3       16.5010   49.1250   54.9640 C.ar  476  TRP476      0.0001
    176  CH2       17.0890   47.9420   55.4480 C.ar  476  TRP476      0.0015
    177  N         20.8600   43.2770   49.9220 N.3   539  GLY539     -0.1210
    178  CA        20.6140   43.5790   51.3160 C.3   539  GLY539      0.1956
    179  C         19.2070   43.1670   51.6890 C.2   539  GLY539      0.2611
    180  O         18.5300   42.4800   50.9300 O.2   539  GLY539     -0.2717
    181  N         18.7500   43.6010   52.8520 N.am  540  TRP540     -0.1976
    182  CA        17.4230   43.2390   53.3140 C.3   540  TRP540      0.1640
    183  C         16.3100   43.6970   52.3670 C.2   540  TRP540      0.2290
    184  O         15.3830   42.9320   52.0710 O.2   540  TRP540     -0.2864
    185  CB        17.1920   43.8050   54.7160 C.3   540  TRP540      0.0576
    186  CG        16.1010   43.1130   55.4790 C.ar  540  TRP540      0.0006
    187  CD1       15.2630   42.1380   55.0170 C.ar  540  TRP540      0.0946
    188  CD2       15.7090   43.3670   56.8340 C.ar  540  TRP540      0.0152
    189  NE1       14.3730   41.7710   55.9980 N.ar  540  TRP540     -0.2442
    190  CE2       14.6240   42.5110   57.1240 C.ar  540  TRP540      0.0810
    191  CE3       16.1670   44.2390   57.8300 C.ar  540  TRP540      0.0012
    192  CZ2       13.9870   42.5010   58.3750 C.ar  540  TRP540      0.0191
    193  CZ3       15.5350   44.2300   59.0730 C.ar  540  TRP540      0.0001
    194  CH2       14.4570   43.3660   59.3320 C.ar  540  TRP540      0.0015
    195  N         11.6840   38.0400   56.5770 N.3   556  LEU556     -0.1245
    196  CA        11.5210   38.7040   57.8640 C.3   556  LEU556      0.1561
    197  C         10.5240   39.8570   57.7390 C.2   556  LEU556      0.2260
    198  O         10.5720   40.8200   58.4960 O.2   556  LEU556     -0.2867
    199  CB        12.8730   39.2060   58.3830 C.3   556  LEU556      0.0270
    200  CG        13.9630   38.1490   58.6340 C.3   556  LEU556      0.0019
    201  CD1       15.2460   38.8280   59.1130 C.3   556  LEU556      0.0001
    202  CD2       13.4870   37.1380   59.6630 C.3   556  LEU556      0.0001
@<TRIPOS>BOND
     1    29    27   ar
     2     1     2    1
     3    28    27   ar
     4     4     3    2
     5    27    26    1
     6     2     3    1
     7     2     5    1
     8   177   178    1
     9   180   179    2
    10    35    34    1
    11    26    23    1
    12     6     5    1
    13     6     7    1
    14   178   179    1
    15   163   164    1
    16    31    30    1
    17    31    34    1
    18    31    32    1
    19   167   164    1
    20   167   168    1
    21   179   181   am
    22    34    36    1
    23    23    24    1
    24    23    22    1
    25   184   183    2
    26   165   164    1
    27   165   166    2
    28    24    25    2
    29   183   182    1
    30    32    33    2
    31     7     8   ar
    32     7     9   ar
    33   169   168   ar
    34   169   171   ar
    35   168   170   ar
    36   181   182    1
    37    22    18   am
    38   182   185    1
    39   171   172   ar
    40    39    40    2
    41    39    38    1
    42   170   173   ar
    43   170   172   ar
    44   161   160    2
    45    19    18    2
    46    37    38    1
    47    38    41    1
    48    18    17    1
    49   173   175   ar
    50   172   174   ar
    51   160   162   am
    52   160   159    1
    53   185   186    1
    54   175   176   ar
    55   174   176   ar
    56   187   186   ar
    57   187   189   ar
    58    41    42    1
    59    17    16    1
    60    17    20    1
    61    42    43    1
    62   186   188   ar
    63   159   158    1
    64   189   190   ar
    65    51    50    2
    66    13    12    2
    67    16    12   am
    68    20    21    1
    69    43    44    1
    70    54    52    1
    71    12    11    1
    72    44    45    2
    73   195   196    1
    74    52    49    1
    75    52    53    1
    76   156   157    2
    77   156   155    1
    78    49    50    1
    79    49    48    1
    80   188   190   ar
    81   188   191   ar
    82    45    46    1
    83    45    47    1
    84   158   155    1
    85   190   192   ar
    86    10    11    1
    87   150   151    1
    88   150   147    1
    89    11    14    1
    90   152   151    2
    91   155   154    1
    92   197   196    1
    93   197   198    2
    94   154   148   am
    95   191   193   ar
    96    21    15    1
    97   196   199    1
    98   151   153   am
    99   148   147    1
   100   148   149    2
   101   146   147    1
   102   192   194   ar
   103   199   200    1
   104   200   201    1
   105   200   202    1
   106    15    14    1
   107   193   194   ar
   108    98    96   ar
   109    98    99   ar
   110    96    93   ar
   111    89    88    2
   112    99    97   ar
   113    60    59    1
   114    93    91   ar
   115    93    95   ar
   116    59    56    1
   117    88    87    1
   118    90    91    1
   119    90    87    1
   120    97    95   ar
   121   144   143    1
   122    91    92   ar
   123   143   145    1
   124   143   142    2
   125    95    94   ar
   126   142   141    1
   127    87    86    1
   128   121   120   ar
   129   121   119   ar
   130   141   140    1
   131    77    76   ar
   132   140   139    1
   133    75    74    1
   134    75    76    1
   135   120   118   ar
   136    56    57    1
   137    56    55    1
   138    74    71    1
   139   119   117   ar
   140   128   127   ar
   141    92    94   ar
   142    76    78   ar
   143    57    61   am
   144    57    58    2
   145    61    62    1
   146    62    63    1
   147   136   139    1
   148   136   135    1
   149   136   137    1
   150   138   137    2
   151   118   115   ar
   152   117   115   ar
   153   117   116   ar
   154   127   129   ar
   155   127   126    1
   156    71    72    1
   157    71    70    1
   158    73    72    2
   159   125   124    2
   160    70    67   am
   161   115   113   ar
   162   134   131    1
   163    63    64    2
   164    63    65   am
   165   133   132    2
   166   126   123    1
   167   116   114   ar
   168    65    66    1
   169   124   123    1
   170   130   131    1
   171   131   132    1
   172    84    83    1
   173    67    66    1
   174    67    68    2
   175   113   114   ar
   176   113   112    1
   177   123   122    1
   178   106   105    2
   179    66    69    1
   180    83    85    1
   181    83    80    1
   182    82    81    2
   183    81    80    1
   184   105   107   am
   185   105   104    1
   186   112   109    1
   187    80    79    1
   188   104   101    1
   189   100   101    1
   190   109   108    1
   191   109   110    1
   192   101   102    1
   193   110   111    2
   194   103   102    2
