@<TRIPOS>MOLECULE
tmp/1ls3B02.pdb
 166 156 0 0 0
SMALL
GASTEIGER

@<TRIPOS>ATOM
      1  N        -31.8180  175.6690  -55.0830 N.3    39  SER39      -0.1217
      2  CA       -31.1200  176.7060  -54.3370 C.3    39  SER39       0.1889
      3  C        -31.3790  178.1210  -54.8310 C.2    39  SER39       0.2288
      4  O        -30.8710  179.0790  -54.2550 O.2    39  SER39      -0.2866
      5  CB       -29.6120  176.4190  -54.3280 C.3    39  SER39       0.2089
      6  OG       -29.1290  176.2070  -55.6400 O.3    39  SER39      -0.2183
      7  N        -21.2450  163.9160  -49.3510 N.3   129  LEU129     -0.1245
      8  CA       -21.6980  164.6950  -50.5090 C.3   129  LEU129      0.1561
      9  C        -22.6870  163.9220  -51.3810 C.2   129  LEU129      0.2260
     10  O        -23.8090  164.3720  -51.6130 O.2   129  LEU129     -0.2867
     11  CB       -20.5000  165.1230  -51.3620 C.3   129  LEU129      0.0270
     12  CG       -20.3190  166.6160  -51.6240 C.3   129  LEU129      0.0019
     13  CD1      -19.9740  167.3160  -50.3180 C.3   129  LEU129      0.0001
     14  CD2      -19.2130  166.8230  -52.6480 C.3   129  LEU129      0.0001
     15  N        -26.2050  163.9280  -50.3990 N.3   132  GLY132     -0.1210
     16  CA       -26.9000  165.1830  -50.1750 C.3   132  GLY132      0.1956
     17  C        -26.1870  166.1830  -49.2800 C.2   132  GLY132      0.2612
     18  O        -26.7820  167.1780  -48.8700 O.2   132  GLY132     -0.2717
     19  N        -24.9190  165.9250  -48.9710 N.am  133  GLY133     -0.1942
     20  CA       -24.1760  166.8450  -48.1300 C.3   133  GLY133      0.2014
     21  C        -23.6390  167.9890  -48.9620 C.2   133  GLY133      0.2639
     22  O        -23.6880  167.9380  -50.1890 O.2   133  GLY133     -0.2714
     23  N        -23.1330  169.0230  -48.3000 N.am  134  HIS134     -0.1959
     24  CA       -22.5760  170.1730  -49.0060 C.3   134  HIS134      0.1787
     25  C        -21.0590  170.1350  -48.9210 C.2   134  HIS134      0.2620
     26  O        -20.5150  169.6080  -47.9540 O.2   134  HIS134     -0.2715
     27  CB       -23.0960  171.4720  -48.3820 C.3   134  HIS134      0.0785
     28  CG       -22.6610  172.7080  -49.1060 C.ar  134  HIS134      0.0821
     29  ND1      -21.4810  173.3610  -48.8260 N.ar  134  HIS134     -0.2267
     30  CD2      -23.2430  173.3970  -50.1170 C.ar  134  HIS134      0.1154
     31  CE1      -21.3560  174.4010  -49.6310 C.ar  134  HIS134      0.1986
     32  NE2      -22.4120  174.4450  -50.4240 N.ar  134  HIS134     -0.2212
     33  N        -20.3890  170.6890  -49.9320 N.am  135  LEU135     -0.1977
     34  CA       -18.9260  170.7390  -49.9720 C.3   135  LEU135      0.1596
     35  C        -18.3460  171.2160  -48.6460 C.2   135  LEU135      0.2287
     36  O        -17.4270  170.6090  -48.1120 O.2   135  LEU135     -0.2864
     37  CB       -18.4480  171.7050  -51.0580 C.3   135  LEU135      0.0297
     38  CG       -18.7820  171.4120  -52.5130 C.3   135  LEU135      0.0022
     39  CD1      -18.4010  172.6070  -53.3790 C.3   135  LEU135      0.0001
     40  CD2      -18.0400  170.1590  -52.9610 C.3   135  LEU135      0.0001
     41  N        -15.2820  167.1440  -47.8180 N.3   139  PHE139     -0.1241
     42  CA       -15.4590  166.3320  -49.0100 C.3   139  PHE139      0.1605
     43  C        -14.0730  166.0570  -49.5400 C.2   139  PHE139      0.2264
     44  O        -13.3450  166.9830  -49.8830 O.2   139  PHE139     -0.2867
     45  CB       -16.2920  167.0750  -50.0530 C.3   139  PHE139      0.0534
     46  CG       -16.6860  166.1400  -51.1850 C.ar  139  PHE139     -0.0203
     47  CD1      -15.8190  165.9360  -52.2290 C.ar  139  PHE139     -0.0042
     48  CD2      -17.9110  165.5080  -51.1090 C.ar  139  PHE139     -0.0042
     49  CE1      -16.1600  165.0370  -53.2530 C.ar  139  PHE139     -0.0003
     50  CE2      -18.2760  164.6190  -52.1600 C.ar  139  PHE139     -0.0003
     51  CZ       -17.3670  164.3940  -53.1590 C.ar  139  PHE139     -0.0000
     52  N        -11.3240  162.5500  -51.2540 N.3   141  THR141     -0.1218
     53  CA       -11.2830  161.2470  -51.8940 C.3   141  THR141      0.1862
     54  C        -10.1620  160.3950  -51.3430 C.2   141  THR141      0.2287
     55  O         -9.4240  160.7930  -50.4340 O.2   141  THR141     -0.2866
     56  CB       -11.0840  161.3510  -53.4160 C.3   141  THR141      0.1770
     57  OG1       -9.7710  161.8520  -53.6960 O.3   141  THR141     -0.2211
     58  CG2      -12.1220  162.2730  -54.0170 C.3   141  THR141      0.0375
     59  N         -7.7450  159.8200  -52.8270 N.3   143  LYS143     -0.1231
     60  CA        -6.5600  160.5430  -53.2930 C.3   143  LYS143      0.1693
     61  C         -6.3180  161.9600  -52.7630 C.2   143  LYS143      0.2591
     62  O         -5.2970  162.2150  -52.1240 O.2   143  LYS143     -0.2718
     63  CB        -6.5560  160.5670  -54.8320 C.3   143  LYS143      0.0285
     64  CG        -7.7860  161.2130  -55.4820 C.3   143  LYS143      0.0035
     65  CD        -7.5740  162.6960  -55.7570 C.3   143  LYS143      0.0206
     66  CE        -8.8560  163.3830  -56.2160 C.3   143  LYS143      0.1093
     67  NZ        -9.4180  162.7980  -57.4730 N.3   143  LYS143     -0.1314
     68  N         -7.2400  162.8810  -53.0310 N.am  144  LYS144     -0.1980
     69  CA        -7.0770  164.2670  -52.5940 C.3   144  LYS144      0.1596
     70  C         -8.3310  164.8820  -51.9810 C.2   144  LYS144      0.2287
     71  O         -9.4460  164.3960  -52.1730 O.2   144  LYS144     -0.2864
     72  CB        -6.6180  165.1350  -53.7740 C.3   144  LYS144      0.0298
     73  CG        -6.3880  166.6000  -53.4290 C.3   144  LYS144      0.0038
     74  CD        -7.1700  167.5350  -54.3570 C.3   144  LYS144      0.0206
     75  CE        -6.6540  167.5200  -55.8050 C.3   144  LYS144      0.1093
     76  NZ        -7.3400  168.5500  -56.6480 N.3   144  LYS144     -0.1314
     77  N        -10.9740  167.8270  -51.8500 N.3   146  ILE146     -0.1245
     78  CA       -11.5270  168.8580  -52.7280 C.3   146  ILE146      0.1561
     79  C        -11.9890  170.1330  -52.0160 C.2   146  ILE146      0.2260
     80  O        -11.8050  171.2340  -52.5290 O.2   146  ILE146     -0.2867
     81  CB       -12.7290  168.3190  -53.5510 C.3   146  ILE146      0.0252
     82  CG1      -13.9450  168.1050  -52.6350 C.3   146  ILE146      0.0019
     83  CG2      -12.3310  167.0210  -54.2520 C.3   146  ILE146      0.0019
     84  CD1      -15.2190  167.6990  -53.3480 C.3   146  ILE146      0.0001
     85  N        -27.9820  169.7800  -48.5980 N.3   189  SER189     -0.1202
     86  CA       -28.0880  170.5210  -49.8540 C.3   189  SER189      0.2020
     87  C        -29.0740  169.7960  -50.7650 C.2   189  SER189      0.2619
     88  O        -29.6310  170.3900  -51.6840 O.2   189  SER189     -0.2717
     89  CB       -26.7390  170.6000  -50.5650 C.3   189  SER189      0.2103
     90  OG       -25.8850  171.5270  -49.9360 O.3   189  SER189     -0.2182
     91  N        -29.2750  168.5060  -50.5040 N.am  190  CYS190     -0.1969
     92  CA       -30.1870  167.6880  -51.2920 C.3   190  CYS190      0.1712
     93  C        -30.7130  166.5240  -50.4500 C.2   190  CYS190      0.2296
     94  O        -30.2540  165.3790  -50.5680 O.2   190  CYS190     -0.2864
     95  CB       -29.4830  167.1470  -52.5400 C.3   190  CYS190      0.0983
     96  SG       -30.5970  166.3320  -53.6960 S.3   190  CYS190     -0.0798
     97  N        -30.6250  175.7140  -46.7920 N.3   217  HIS217     -0.1241
     98  CA       -31.7260  175.2950  -47.6550 C.3   217  HIS217      0.1621
     99  C        -33.1340  175.4410  -47.0780 C.2   217  HIS217      0.2264
    100  O        -34.0770  175.6870  -47.8210 O.2   217  HIS217     -0.2867
    101  CB       -31.5260  173.8460  -48.1020 C.3   217  HIS217      0.0745
    102  CG       -31.1230  173.7020  -49.5370 C.ar  217  HIS217      0.0817
    103  ND1      -29.8110  173.7600  -49.9540 N.ar  217  HIS217     -0.2268
    104  CD2      -31.8620  173.5010  -50.6530 C.ar  217  HIS217      0.1154
    105  CE1      -29.7590  173.6000  -51.2650 C.ar  217  HIS217      0.1986
    106  NE2      -30.9910  173.4400  -51.7130 N.ar  217  HIS217     -0.2212
    107  N        -31.5480  181.7480  -51.1460 N.3   243  LYS243     -0.1245
    108  CA       -32.3060  180.5040  -51.1730 C.3   243  LYS243      0.1561
    109  C        -33.7270  180.7110  -50.6530 C.2   243  LYS243      0.2260
    110  O        -34.3940  181.6510  -51.0870 O.2   243  LYS243     -0.2867
    111  CB       -31.5710  179.4320  -50.3880 C.3   243  LYS243      0.0271
    112  CG       -30.2130  179.1710  -50.9880 C.3   243  LYS243      0.0035
    113  CD       -29.4680  178.0540  -50.3130 C.3   243  LYS243      0.0206
    114  CE       -28.2330  177.7030  -51.1280 C.3   243  LYS243      0.1093
    115  NZ       -27.2460  177.0180  -50.3050 N.3   243  LYS243     -0.1314
    116  N        -30.7550  170.9800  -61.7580 N.3   363  ASN363     -0.1225
    117  CA       -29.4620  170.3120  -61.8460 C.3   363  ASN363      0.1785
    118  C        -29.5050  168.8600  -61.4430 C.2   363  ASN363      0.2597
    119  O        -30.4170  168.4420  -60.7300 O.2   363  ASN363     -0.2718
    120  CB       -28.4600  171.0030  -60.9420 C.3   363  ASN363      0.1169
    121  CG       -28.8190  170.8520  -59.4920 C.2   363  ASN363      0.2627
    122  OD1      -29.6440  171.5960  -58.9650 O.2   363  ASN363     -0.2716
    123  ND2      -28.2280  169.8590  -58.8400 N.am  363  ASN363     -0.0877
    124  N        -28.4880  168.1210  -61.8880 N.am  364  LYS364     -0.1966
    125  CA       -28.3320  166.6950  -61.6070 C.3   364  LYS364      0.1728
    126  C        -27.8630  166.4680  -60.1670 C.2   364  LYS364      0.2616
    127  O        -27.0800  167.2500  -59.6330 O.2   364  LYS364     -0.2715
    128  CB       -27.3090  166.1050  -62.5710 C.3   364  LYS364      0.0311
    129  CG       -25.9930  166.8640  -62.5780 C.3   364  LYS364      0.0038
    130  CD       -25.0010  166.2580  -63.5500 C.3   364  LYS364      0.0206
    131  CE       -23.6630  166.9650  -63.4700 C.3   364  LYS364      0.1093
    132  NZ       -23.7990  168.4130  -63.7850 N.3   364  LYS364     -0.1314
    133  N        -28.3500  165.4040  -59.5380 N.am  365  ASN365     -0.1958
    134  CA       -27.9600  165.1090  -58.1640 C.3   365  ASN365      0.1819
    135  C        -27.2240  163.7740  -58.1010 C.2   365  ASN365      0.2621
    136  O        -27.4820  162.8680  -58.8900 O.2   365  ASN365     -0.2715
    137  CB       -29.1830  165.0920  -57.2600 C.3   365  ASN365      0.1195
    138  CG       -28.7490  165.1740  -55.8150 C.2   365  ASN365      0.2630
    139  OD1      -28.2860  166.2070  -55.3630 O.2   365  ASN365     -0.2716
    140  ND2      -28.9370  164.1060  -55.0460 N.am  365  ASN365     -0.0877
    141  N        -26.3010  163.6730  -57.1550 N.am  366  THR366     -0.1951
    142  CA       -25.4830  162.4830  -56.9750 C.3   366  THR366      0.1897
    143  C        -26.1560  161.3740  -56.1490 C.2   366  THR366      0.2313
    144  O        -25.6620  161.0010  -55.0930 O.2   366  THR366     -0.2863
    145  CB       -24.1400  162.8800  -56.3090 C.3   366  THR366      0.1794
    146  OG1      -24.4010  163.8290  -55.2680 O.3   366  THR366     -0.2208
    147  CG2      -23.1800  163.5060  -57.3200 C.3   366  THR366      0.0378
    148  N        -19.5380  161.2860  -61.2630 N.3   371  LEU371     -0.1245
    149  CA       -19.1830  161.3080  -62.6770 C.3   371  LEU371      0.1561
    150  C        -20.3750  160.8230  -63.5100 C.2   371  LEU371      0.2260
    151  O        -20.4240  161.0310  -64.7190 O.2   371  LEU371     -0.2867
    152  CB       -17.9410  160.4460  -62.9170 C.3   371  LEU371      0.0270
    153  CG       -17.0970  160.7530  -64.1590 C.3   371  LEU371      0.0019
    154  CD1      -15.6590  160.3420  -63.8930 C.3   371  LEU371      0.0001
    155  CD2      -17.6560  160.0410  -65.3830 C.3   371  LEU371      0.0001
    156  N        -32.4320  167.0030  -58.9580 N.3   377  ARG377     -0.1245
    157  CA       -32.9620  167.6780  -57.7930 C.3   377  ARG377      0.1563
    158  C        -33.8900  168.7770  -58.2810 C.2   377  ARG377      0.2260
    159  O        -33.5420  169.5450  -59.1890 O.2   377  ARG377     -0.2867
    160  CB       -31.8420  168.2830  -56.9610 C.3   377  ARG377      0.0307
    161  CG       -32.3420  168.9130  -55.6780 C.3   377  ARG377      0.0489
    162  CD       -31.2290  169.6380  -54.9680 C.3   377  ARG377      0.2205
    163  NE       -30.6660  170.6920  -55.8070 N.pl3 377  ARG377     -0.0865
    164  CZ       -29.7580  171.5690  -55.3930 C.cat 377  ARG377      0.5346
    165  NH1      -29.3080  171.5220  -54.1480 N.pl3 377  ARG377      0.1354
    166  NH2      -29.2990  172.4950  -56.2250 N.pl3 377  ARG377      0.1354
@<TRIPOS>BOND
     1   155   153    1
     2   151   150    2
     3   153   154    1
     4   153   152    1
     5   132   131    1
     6   130   131    1
     7   130   129    1
     8   150   149    1
     9   152   149    1
    10   149   148    1
    11   129   128    1
    12   128   125    1
    13   124   125    1
    14   124   118   am
    15   117   116    1
    16   117   118    1
    17   117   120    1
    18   125   126    1
    19   118   119    2
    20   120   121    1
    21   126   127    2
    22   126   133   am
    23   133   134    1
    24   121   122    2
    25   121   123   am
    26   159   158    2
    27   156   157    1
    28   136   135    2
    29   158   157    1
    30   134   135    1
    31   134   137    1
    32   135   141   am
    33   157   160    1
    34    67    66    1
    35   147   145    1
    36   137   138    1
    37   141   142    1
    38   142   145    1
    39   142   143    1
    40   160   161    1
    41    76    75    1
    42   145   146    1
    43   166   164    1
    44    66    65    1
    45   143   144    2
    46   138   139    2
    47   138   140   am
    48   163   164    2
    49   163   162    1
    50    75    74    1
    51    65    64    1
    52   161   162    1
    53     6     5    1
    54    64    63    1
    55   164   165    1
    56     1     2    1
    57    63    60    1
    58     3     2    1
    59     3     4    2
    60    74    73    1
    61     2     5    1
    62    83    81    1
    63    58    56    1
    64    72    73    1
    65    72    69    1
    66    96    95    1
    67    57    56    1
    68    81    78    1
    69    81    82    1
    70    56    53    1
    71    39    38    1
    72    84    82    1
    73    60    59    1
    74    60    61    1
    75    49    51   ar
    76    49    47   ar
    77    51    50   ar
    78    68    61   am
    79    68    69    1
    80    40    38    1
    81    61    62    2
    82    78    79    1
    83    78    77    1
    84    14    12    1
    85    69    70    1
    86    95    92    1
    87    80    79    2
    88    38    37    1
    89    47    46   ar
    90    71    70    2
    91    50    48   ar
    92    53    54    1
    93    53    52    1
    94   106   105   ar
    95   106   104   ar
    96    88    87    2
    97    12    11    1
    98    12    13    1
    99    10     9    2
   100     9     8    1
   101    11     8    1
   102    54    55    2
   103    92    91    1
   104    92    93    1
   105   105   103   ar
   106    46    48   ar
   107    46    45    1
   108   108   107    1
   109   108   109    1
   110   108   111    1
   111   114   113    1
   112   114   115    1
   113   110   109    2
   114    37    34    1
   115   112   111    1
   116   112   113    1
   117    87    91   am
   118    87    86    1
   119   104   102   ar
   120    94    93    2
   121    89    90    1
   122    89    86    1
   123     8     7    1
   124    32    30   ar
   125    32    31   ar
   126    15    16    1
   127    22    21    2
   128    16    17    1
   129    30    28   ar
   130    45    42    1
   131    34    33    1
   132    34    35    1
   133   103   102   ar
   134    33    25   am
   135    44    43    2
   136    86    85    1
   137    31    29   ar
   138    43    42    1
   139   102   101    1
   140    17    19   am
   141    17    18    2
   142    28    29   ar
   143    28    27    1
   144    42    41    1
   145    24    25    1
   146    24    27    1
   147    24    23    1
   148    19    20    1
   149    21    23   am
   150    21    20    1
   151    25    26    2
   152    35    36    2
   153   101    98    1
   154   100    99    2
   155    98    99    1
   156    98    97    1
