@<TRIPOS>MOLECULE
tmp/1ls6A01.pdb
 170 166 0 0 0
SMALL
GASTEIGER

@<TRIPOS>ATOM
      1  N         10.6120   98.3140   57.5790 N.3    14  ILE14      -0.1245
      2  CA        10.7180   98.7100   56.1930 C.3    14  ILE14       0.1561
      3  C         10.8430   97.3580   55.4770 C.2    14  ILE14       0.2260
      4  O         11.5220   96.4530   55.9630 O.2    14  ILE14      -0.2867
      5  CB        11.9840   99.5890   56.0030 C.3    14  ILE14       0.0252
      6  CG1       11.6830  100.9990   56.5380 C.3    14  ILE14       0.0019
      7  CG2       12.4040   99.6180   54.5400 C.3    14  ILE14       0.0019
      8  CD1       12.8850  101.9010   56.6800 C.3    14  ILE14       0.0001
      9  N         14.3090   95.9710   55.0540 N.3    17  PHE17      -0.1241
     10  CA        14.9900   95.6510   56.3120 C.3    17  PHE17       0.1605
     11  C         14.5170   94.3040   56.8440 C.2    17  PHE17       0.2264
     12  O         15.2880   93.5600   57.4570 O.2    17  PHE17      -0.2867
     13  CB        14.7520   96.7500   57.3570 C.3    17  PHE17       0.0534
     14  CG        15.4060   98.0670   57.0180 C.ar   17  PHE17      -0.0203
     15  CD1       15.8480   98.3380   55.7190 C.ar   17  PHE17      -0.0042
     16  CD2       15.5620   99.0470   57.9920 C.ar   17  PHE17      -0.0042
     17  CE1       16.4360   99.5690   55.3980 C.ar   17  PHE17      -0.0003
     18  CE2       16.1460  100.2830   57.6870 C.ar   17  PHE17      -0.0003
     19  CZ        16.5850  100.5450   56.3850 C.ar   17  PHE17      -0.0000
     20  N         14.8990  105.3260   65.8890 N.3    40  PRO40      -0.2102
     21  CA        15.2010  106.3180   64.8490 C.3    40  PRO40       0.1504
     22  C         15.0500  107.7830   65.2580 C.2    40  PRO40       0.2575
     23  O         14.1450  108.1280   66.0170 O.2    40  PRO40      -0.2718
     24  CB        14.2260  105.9490   63.7290 C.3    40  PRO40       0.0282
     25  CG        14.1290  104.4680   63.8490 C.3    40  PRO40       0.0208
     26  CD        14.0260  104.2590   65.3630 C.3    40  PRO40       0.0893
     27  N         15.9510  108.6200   64.7350 N.am   41  LYS41      -0.1980
     28  CA        15.9690  110.0810   64.9270 C.3    41  LYS41       0.1596
     29  C         16.3400  110.5580   66.3240 C.2    41  LYS41       0.2287
     30  O         16.0340  111.6880   66.7000 O.2    41  LYS41      -0.2864
     31  CB        14.6030  110.6970   64.5330 C.3    41  LYS41       0.0298
     32  CG        13.9470  110.0850   63.2630 C.3    41  LYS41       0.0038
     33  CD        14.9610  109.8130   62.1360 C.3    41  LYS41       0.0206
     34  CE        15.6660  111.0840   61.6620 C.3    41  LYS41       0.1093
     35  NZ        16.8410  110.7770   60.7830 N.3    41  LYS41      -0.1314
     36  N         21.5510  108.9990   66.4970 N.3    44  THR44      -0.1218
     37  CA        22.4110  107.9250   66.0130 C.3    44  THR44       0.1862
     38  C         23.6510  108.4230   65.2620 C.2    44  THR44       0.2287
     39  O         24.7830  108.0080   65.5370 O.2    44  THR44      -0.2866
     40  CB        21.6360  106.9950   65.0430 C.3    44  THR44       0.1770
     41  OG1       20.2900  106.8110   65.5180 O.3    44  THR44      -0.2211
     42  CG2       22.3390  105.6300   64.9210 C.3    44  THR44       0.0375
     43  N         25.4060   99.4660   59.3540 N.3    74  PHE74      -0.1241
     44  CA        24.0080   99.5040   59.8210 C.3    74  PHE74       0.1605
     45  C         23.5090   98.0600   59.6450 C.2    74  PHE74       0.2264
     46  O         23.1340   97.6350   58.5470 O.2    74  PHE74      -0.2867
     47  CB        23.2600  100.5010   58.9240 C.3    74  PHE74       0.0534
     48  CG        21.8320  100.7790   59.3230 C.ar   74  PHE74      -0.0203
     49  CD1       21.0410  101.5810   58.5040 C.ar   74  PHE74      -0.0042
     50  CD2       21.2700  100.2300   60.4700 C.ar   74  PHE74      -0.0042
     51  CE1       19.7010  101.8320   58.8130 C.ar   74  PHE74      -0.0003
     52  CE2       19.9240  100.4770   60.7900 C.ar   74  PHE74      -0.0003
     53  CZ        19.1440  101.2800   59.9530 C.ar   74  PHE74      -0.0000
     54  N         20.3650   97.0240   57.6140 N.3    77  PHE77      -0.1241
     55  CA        20.1650   97.8020   56.4030 C.3    77  PHE77       0.1605
     56  C         20.1980   97.0310   55.0880 C.2    77  PHE77       0.2264
     57  O         21.0030   96.1270   54.8930 O.2    77  PHE77      -0.2867
     58  CB        21.1840   98.9240   56.2970 C.3    77  PHE77       0.0534
     59  CG        20.9820   99.7870   55.0890 C.ar   77  PHE77      -0.0203
     60  CD1       19.9740  100.7500   55.0730 C.ar   77  PHE77      -0.0042
     61  CD2       21.7510   99.5990   53.9430 C.ar   77  PHE77      -0.0042
     62  CE1       19.7300  101.5130   53.9370 C.ar   77  PHE77      -0.0003
     63  CE2       21.5120  100.3610   52.7930 C.ar   77  PHE77      -0.0003
     64  CZ        20.5020  101.3160   52.7920 C.ar   77  PHE77      -0.0000
     65  N         25.7680   99.6840   64.1170 N.3    99  LYS99      -0.1245
     66  CA        24.5400  100.4460   64.3410 C.3    99  LYS99       0.1561
     67  C         23.2770   99.6030   64.1320 C.2    99  LYS99       0.2260
     68  O         23.2350   98.7100   63.2740 O.2    99  LYS99      -0.2867
     69  CB        24.4970  101.6730   63.4000 C.3    99  LYS99       0.0271
     70  CG        23.0900  102.2580   63.1840 C.3    99  LYS99       0.0035
     71  CD        23.0820  103.3640   62.1130 C.3    99  LYS99       0.0206
     72  CE        21.6550  103.8140   61.7670 C.3    99  LYS99       0.1093
     73  NZ        21.6470  104.8510   60.6640 N.3    99  LYS99      -0.1314
     74  N         18.6290   99.7560   65.0270 N.3   101  HIS101     -0.1241
     75  CA        17.4590  100.3830   65.6630 C.3   101  HIS101      0.1621
     76  C         16.5460   99.2260   66.0680 C.2   101  HIS101      0.2264
     77  O         15.4140   99.4410   66.5120 O.2   101  HIS101     -0.2867
     78  CB        16.6460  101.2360   64.6910 C.3   101  HIS101      0.0745
     79  CG        17.3970  102.3710   64.0860 C.ar  101  HIS101      0.0817
     80  ND1       17.9970  103.3580   64.8400 N.ar  101  HIS101     -0.2268
     81  CD2       17.5950  102.7090   62.7900 C.ar  101  HIS101      0.1154
     82  CE1       18.5270  104.2590   64.0320 C.ar  101  HIS101      0.1986
     83  NE2       18.2950  103.8910   62.7840 N.ar  101  HIS101     -0.2212
     84  N         11.6770  112.9990   58.1340 N.3   135  PHE135     -0.1241
     85  CA        12.5690  111.9640   57.6150 C.3   135  PHE135      0.1605
     86  C         11.7670  111.0230   56.7030 C.2   135  PHE135      0.2264
     87  O         12.2560  110.5840   55.6530 O.2   135  PHE135     -0.2867
     88  CB        13.1880  111.1870   58.7890 C.3   135  PHE135      0.0534
     89  CG        14.2220  110.1690   58.3820 C.ar  135  PHE135     -0.0203
     90  CD1       15.3360  110.5420   57.6340 C.ar  135  PHE135     -0.0042
     91  CD2       14.1110  108.8450   58.7950 C.ar  135  PHE135     -0.0042
     92  CE1       16.3200  109.6190   57.3090 C.ar  135  PHE135     -0.0003
     93  CE2       15.0930  107.9110   58.4750 C.ar  135  PHE135     -0.0003
     94  CZ        16.2020  108.3020   57.7290 C.ar  135  PHE135     -0.0000
     95  N         13.3430  110.2040   53.0770 N.3   139  ALA139     -0.1245
     96  CA        13.8820  108.8560   52.9400 C.3   139  ALA139      0.1562
     97  C         12.7840  108.0090   52.2880 C.2   139  ALA139      0.2260
     98  O         11.8970  107.4700   52.9650 O.2   139  ALA139     -0.2867
     99  CB        14.2620  108.3100   54.3160 C.3   139  ALA139      0.0290
    100  N         12.3060  105.0320   51.1930 N.3   141  VAL141     -0.1231
    101  CA        12.0000  103.6260   51.4080 C.3   141  VAL141      0.1692
    102  C         10.8230  103.5060   52.3920 C.2   141  VAL141      0.2592
    103  O         10.2370  102.4340   52.5430 O.2   141  VAL141     -0.2718
    104  CB        13.2100  102.8520   51.9720 C.3   141  VAL141      0.0266
    105  CG1       14.2900  102.7130   50.9010 C.3   141  VAL141      0.0020
    106  CG2       13.7590  103.5770   53.1980 C.3   141  VAL141      0.0020
    107  N         10.4870  104.6030   53.0670 N.am  142  HIS142     -0.1976
    108  CA         9.3690  104.5950   54.0120 C.3   142  HIS142      0.1656
    109  C          8.0530  104.7490   53.2640 C.2   142  HIS142      0.2291
    110  O          8.0150  105.2920   52.1610 O.2   142  HIS142     -0.2864
    111  CB         9.4440  105.7710   55.0040 C.3   142  HIS142      0.0771
    112  CG        10.6390  105.7530   55.9060 C.ar  142  HIS142      0.0820
    113  ND1       11.8530  106.2940   55.5430 N.ar  142  HIS142     -0.2267
    114  CD2       10.8030  105.2670   57.1620 C.ar  142  HIS142      0.1154
    115  CE1       12.7140  106.1430   56.5360 C.ar  142  HIS142      0.1986
    116  NE2       12.1030  105.5240   57.5300 N.ar  142  HIS142     -0.2212
    117  N          9.8780  100.4670   62.7770 N.3   162  TYR162     -0.1241
    118  CA        10.4940  100.0540   64.0440 C.3   162  TYR162      0.1605
    119  C          9.5560  100.0200   65.2460 C.2   162  TYR162      0.2264
    120  O          9.9800   99.7460   66.3640 O.2   162  TYR162     -0.2867
    121  CB        11.7240  100.8890   64.3700 C.3   162  TYR162      0.0534
    122  CG        12.9000  100.5700   63.4740 C.ar  162  TYR162     -0.0201
    123  CD1       13.6140   99.3720   63.6130 C.ar  162  TYR162     -0.0009
    124  CD2       13.3060  101.4640   62.4950 C.ar  162  TYR162     -0.0009
    125  CE1       14.7110   99.0870   62.7940 C.ar  162  TYR162      0.0417
    126  CE2       14.4000  101.1920   61.6770 C.ar  162  TYR162      0.0417
    127  CZ        15.0990  100.0090   61.8360 C.ar  162  TYR162      0.1957
    128  OH        16.2230   99.8010   61.0780 O.3   162  TYR162     -0.2866
    129  N         24.8600  112.6290   54.9010 N.3   233  TYR233     -0.1241
    130  CA        24.1180  111.7680   53.9860 C.3   233  TYR233      0.1605
    131  C         23.8120  112.3410   52.5970 C.2   233  TYR233      0.2264
    132  O         22.9610  111.8110   51.8890 O.2   233  TYR233     -0.2867
    133  CB        22.7950  111.3240   54.6450 C.3   233  TYR233      0.0534
    134  CG        22.9260  110.1820   55.6440 C.ar  233  TYR233     -0.0201
    135  CD1       23.3450  110.4120   56.9610 C.ar  233  TYR233     -0.0009
    136  CD2       22.6620  108.8660   55.2610 C.ar  233  TYR233     -0.0009
    137  CE1       23.4970  109.3500   57.8710 C.ar  233  TYR233      0.0417
    138  CE2       22.8120  107.8030   56.1600 C.ar  233  TYR233      0.0417
    139  CZ        23.2300  108.0550   57.4570 C.ar  233  TYR233      0.1957
    140  OH        23.3820  107.0070   58.3330 O.3   233  TYR233     -0.2866
    141  N         17.0460  107.4560   46.6330 N.3   240  PHE240     -0.1227
    142  CA        17.0040  106.8910   47.9820 C.3   240  PHE240      0.1736
    143  C         16.6630  107.9470   49.0410 C.2   240  PHE240      0.2595
    144  O         15.7930  107.7360   49.8860 O.2   240  PHE240     -0.2718
    145  CB        18.3660  106.2510   48.2780 C.3   240  PHE240      0.0547
    146  CG        18.5000  105.6990   49.6680 C.ar  240  PHE240     -0.0202
    147  CD1       17.7260  104.6190   50.0840 C.ar  240  PHE240     -0.0042
    148  CD2       19.4190  106.2490   50.5550 C.ar  240  PHE240     -0.0042
    149  CE1       17.8690  104.0910   51.3690 C.ar  240  PHE240     -0.0003
    150  CE2       19.5700  105.7310   51.8410 C.ar  240  PHE240     -0.0003
    151  CZ        18.7950  104.6510   52.2470 C.ar  240  PHE240     -0.0000
    152  N         17.3690  109.0710   49.0040 N.am  241  MET241     -0.1979
    153  CA        17.1240  110.1670   49.9360 C.3   241  MET241      0.1605
    154  C         17.1530  111.4710   49.1530 C.2   241  MET241      0.2287
    155  O         18.1270  111.7570   48.4570 O.2   241  MET241     -0.2864
    156  CB        18.1970  110.2250   51.0310 C.3   241  MET241      0.0413
    157  CG        18.1170  109.1130   52.0790 C.3   241  MET241      0.0598
    158  SD        19.2680  109.4520   53.4440 S.3   241  MET241     -0.1393
    159  CE        18.7580  108.1590   54.6260 C.3   241  MET241      0.0692
    160  N         18.8320  115.7110   55.9360 N.3   248  PHE248     -0.1241
    161  CA        19.0030  114.7360   57.0050 C.3   248  PHE248      0.1605
    162  C         19.3780  115.5260   58.2590 C.2   248  PHE248      0.2264
    163  O         18.8390  115.2920   59.3400 O.2   248  PHE248     -0.2867
    164  CB        20.1130  113.7420   56.6620 C.3   248  PHE248      0.0534
    165  CG        20.2350  112.6080   57.6510 C.ar  248  PHE248     -0.0203
    166  CD1       19.6280  111.3830   57.4010 C.ar  248  PHE248     -0.0042
    167  CD2       20.9320  112.7780   58.8410 C.ar  248  PHE248     -0.0042
    168  CE1       19.7130  110.3380   58.3250 C.ar  248  PHE248     -0.0003
    169  CE2       21.0230  111.7420   59.7730 C.ar  248  PHE248     -0.0003
    170  CZ        20.4110  110.5210   59.5110 C.ar  248  PHE248     -0.0000
@<TRIPOS>BOND
     1   141   142    1
     2   142   145    1
     3   142   143    1
     4   145   146    1
     5   155   154    2
     6   152   143   am
     7   152   153    1
     8   143   144    2
     9   154   153    1
    10   146   147   ar
    11   146   148   ar
    12   153   156    1
    13   147   149   ar
    14   148   150   ar
    15   105   104    1
    16   156   157    1
    17   100   101    1
    18   149   151   ar
    19   101   104    1
    20   101   102    1
    21   150   151   ar
    22   132   131    2
    23   104   106    1
    24   157   158    1
    25   110   109    2
    26    97    96    1
    27    97    98    2
    28   102   103    2
    29   102   107   am
    30   131   130    1
    31    64    63   ar
    32    64    62   ar
    33    63    61   ar
    34    96    95    1
    35    96    99    1
    36   107   108    1
    37   109   108    1
    38   158   159    1
    39    62    60   ar
    40    61    59   ar
    41   130   133    1
    42   130   129    1
    43   108   111    1
    44     7     5    1
    45   133   134    1
    46    57    56    2
    47   111   112    1
    48     9    10    1
    49    60    59   ar
    50    56    55    1
    51    59    58    1
    52   136   134   ar
    53   136   138   ar
    54    17    15   ar
    55    17    19   ar
    56     3     4    2
    57     3     2    1
    58   113   112   ar
    59   113   115   ar
    60   134   135   ar
    61    87    86    2
    62    15    14   ar
    63   112   114   ar
    64   160   161    1
    65     5     2    1
    66     5     6    1
    67   138   139   ar
    68     2     1    1
    69    58    55    1
    70    10    11    1
    71    10    13    1
    72    19    18   ar
    73    55    54    1
    74   115   116   ar
    75     6     8    1
    76   164   161    1
    77   164   165    1
    78    86    85    1
    79    11    12    2
    80   135   137   ar
    81   161   162    1
    82    14    13    1
    83    14    16   ar
    84   114   116   ar
    85    92    90   ar
    86    92    94   ar
    87   166   165   ar
    88   166   168   ar
    89   139   137   ar
    90   139   140    1
    91    85    84    1
    92    85    88    1
    93    90    89   ar
    94   165   167   ar
    95    18    16   ar
    96    94    93   ar
    97   162   163    2
    98   168   170   ar
    99    89    88    1
   100    89    91   ar
   101    93    91   ar
   102    49    51   ar
   103    49    48   ar
   104    46    45    2
   105    51    53   ar
   106   167   169   ar
   107    47    48    1
   108    47    44    1
   109    48    50   ar
   110    43    44    1
   111   170   169   ar
   112    45    44    1
   113    53    52   ar
   114    50    52   ar
   115    73    72    1
   116    35    34    1
   117   128   127    1
   118    34    33    1
   119   126   127   ar
   120   126   124   ar
   121    72    71    1
   122   127   125   ar
   123    71    70    1
   124    33    32    1
   125   124   122   ar
   126   117   118    1
   127    83    81   ar
   128    83    82   ar
   129    81    79   ar
   130   125   123   ar
   131    70    69    1
   132    32    31    1
   133    68    67    2
   134    69    66    1
   135   122   123   ar
   136   122   121    1
   137    24    25    1
   138    24    21    1
   139    25    26    1
   140    82    80   ar
   141   118   121    1
   142   118   119    1
   143    79    78    1
   144    79    80   ar
   145    65    66    1
   146    67    66    1
   147    31    28    1
   148    78    75    1
   149    27    28    1
   150    27    22   am
   151    21    22    1
   152    21    20    1
   153    42    40    1
   154    28    29    1
   155    74    75    1
   156    40    41    1
   157    40    37    1
   158   119   120    2
   159    22    23    2
   160    38    39    2
   161    38    37    1
   162    26    20    1
   163    75    76    1
   164    37    36    1
   165    76    77    2
   166    29    30    2
