@<TRIPOS>MOLECULE
tmp/1ls6A02.pdb
 121 118 0 0 0
SMALL
GASTEIGER

@<TRIPOS>ATOM
      1  N         27.9620  105.8670   57.1120 N.3    69  PHE69      -0.1227
      2  CA        27.2650  104.6000   56.9210 C.3    69  PHE69       0.1736
      3  C         28.1740  103.4670   56.4500 C.2    69  PHE69       0.2595
      4  O         27.7760  102.2990   56.4420 O.2    69  PHE69      -0.2718
      5  CB        26.0400  104.7650   55.9960 C.3    69  PHE69       0.0547
      6  CG        26.3090  105.5340   54.7250 C.ar   69  PHE69      -0.0202
      7  CD1       25.9270  106.8650   54.6090 C.ar   69  PHE69      -0.0042
      8  CD2       26.9090  104.9120   53.6330 C.ar   69  PHE69      -0.0042
      9  CE1       26.1310  107.5720   53.4210 C.ar   69  PHE69      -0.0003
     10  CE2       27.1180  105.6050   52.4390 C.ar   69  PHE69      -0.0003
     11  CZ        26.7260  106.9410   52.3360 C.ar   69  PHE69      -0.0000
     12  N         29.3950  103.8150   56.0620 N.am   70  MET70      -0.1979
     13  CA        30.3660  102.8200   55.6290 C.3    70  MET70       0.1605
     14  C         31.3200  102.5140   56.7830 C.2    70  MET70       0.2287
     15  O         31.8110  101.3950   56.9120 O.2    70  MET70      -0.2864
     16  CB        31.1640  103.3340   54.4290 C.3    70  MET70       0.0413
     17  CG        30.3470  103.4940   53.1630 C.3    70  MET70       0.0598
     18  SD        29.6340  101.9330   52.6310 S.3    70  MET70      -0.1393
     19  CE        31.1080  101.0640   52.0940 C.3    70  MET70       0.0692
     20  N         25.4060   99.4660   59.3540 N.3    74  PHE74      -0.1241
     21  CA        24.0080   99.5040   59.8210 C.3    74  PHE74       0.1605
     22  C         23.5090   98.0600   59.6450 C.2    74  PHE74       0.2264
     23  O         23.1340   97.6350   58.5470 O.2    74  PHE74      -0.2867
     24  CB        23.2600  100.5010   58.9240 C.3    74  PHE74       0.0534
     25  CG        21.8320  100.7790   59.3230 C.ar   74  PHE74      -0.0203
     26  CD1       21.0410  101.5810   58.5040 C.ar   74  PHE74      -0.0042
     27  CD2       21.2700  100.2300   60.4700 C.ar   74  PHE74      -0.0042
     28  CE1       19.7010  101.8320   58.8130 C.ar   74  PHE74      -0.0003
     29  CE2       19.9240  100.4770   60.7900 C.ar   74  PHE74      -0.0003
     30  CZ        19.1440  101.2800   59.9530 C.ar   74  PHE74      -0.0000
     31  N         20.3650   97.0240   57.6140 N.3    77  PHE77      -0.1241
     32  CA        20.1650   97.8020   56.4030 C.3    77  PHE77       0.1605
     33  C         20.1980   97.0310   55.0880 C.2    77  PHE77       0.2264
     34  O         21.0030   96.1270   54.8930 O.2    77  PHE77      -0.2867
     35  CB        21.1840   98.9240   56.2970 C.3    77  PHE77       0.0534
     36  CG        20.9820   99.7870   55.0890 C.ar   77  PHE77      -0.0203
     37  CD1       19.9740  100.7500   55.0730 C.ar   77  PHE77      -0.0042
     38  CD2       21.7510   99.5990   53.9430 C.ar   77  PHE77      -0.0042
     39  CE1       19.7300  101.5130   53.9370 C.ar   77  PHE77      -0.0003
     40  CE2       21.5120  100.3610   52.7930 C.ar   77  PHE77      -0.0003
     41  CZ        20.5020  101.3160   52.7920 C.ar   77  PHE77      -0.0000
     42  N         21.8630   99.2400   46.6110 N.3    82  ILE82      -0.1231
     43  CA        22.8390   99.6610   47.6100 C.3    82  ILE82       0.1678
     44  C         23.2960   98.4450   48.4140 C.2    82  ILE82       0.2434
     45  O         22.4960   97.5750   48.7470 O.2    82  ILE82      -0.2733
     46  CB        22.2250  100.6990   48.5710 C.3    82  ILE82       0.0265
     47  CG1       21.6540  101.8740   47.7720 C.3    82  ILE82       0.0019
     48  CG2       23.2760  101.1940   49.5420 C.3    82  ILE82       0.0020
     49  CD1       20.9660  102.9300   48.6240 C.3    82  ILE82       0.0001
     50  N         24.5940   98.3600   48.7320 N.am   83  PRO83      -0.2729
     51  CA        25.0460   97.1970   49.5040 C.3    83  PRO83       0.1401
     52  C         24.4090   97.1360   50.9010 C.2    83  PRO83       0.2269
     53  O         24.1920   98.1660   51.5360 O.2    83  PRO83      -0.2865
     54  CB        26.5650   97.3770   49.5430 C.3    83  PRO83       0.0296
     55  CG        26.7320   98.8680   49.4920 C.3    83  PRO83       0.0237
     56  CD        25.7030   99.2960   48.4690 C.3    83  PRO83       0.0939
     57  N         23.9860   96.1460   55.0180 N.3    85  GLY85      -0.1225
     58  CA        24.8720   96.3420   56.1560 C.3    85  GLY85       0.1811
     59  C         25.7470   95.1130   56.3430 C.2    85  GLY85       0.2280
     60  O         26.9220   95.2170   56.7140 O.2    85  GLY85      -0.2866
     61  N         28.6560   95.3600   53.9020 N.3    88  THR88      -0.1218
     62  CA        29.6400   96.3390   54.3470 C.3    88  THR88       0.1862
     63  C         30.4250   95.7920   55.5330 C.2    88  THR88       0.2287
     64  O         31.6270   96.0240   55.6650 O.2    88  THR88      -0.2866
     65  CB        28.9540   97.6390   54.7710 C.3    88  THR88       0.1770
     66  OG1       28.2760   98.2050   53.6400 O.3    88  THR88      -0.2211
     67  CG2       29.9700   98.6220   55.3080 C.3    88  THR88       0.0375
     68  N         25.7680   99.6840   64.1170 N.3    99  LYS99      -0.1245
     69  CA        24.5400  100.4460   64.3410 C.3    99  LYS99       0.1561
     70  C         23.2770   99.6030   64.1320 C.2    99  LYS99       0.2260
     71  O         23.2350   98.7100   63.2740 O.2    99  LYS99      -0.2867
     72  CB        24.4970  101.6730   63.4000 C.3    99  LYS99       0.0271
     73  CG        23.0900  102.2580   63.1840 C.3    99  LYS99       0.0035
     74  CD        23.0820  103.3640   62.1130 C.3    99  LYS99       0.0206
     75  CE        21.6550  103.8140   61.7670 C.3    99  LYS99       0.1093
     76  NZ        21.6470  104.8510   60.6640 N.3    99  LYS99      -0.1314
     77  N         24.8600  112.6290   54.9010 N.3   233  TYR233     -0.1241
     78  CA        24.1180  111.7680   53.9860 C.3   233  TYR233      0.1605
     79  C         23.8120  112.3410   52.5970 C.2   233  TYR233      0.2264
     80  O         22.9610  111.8110   51.8890 O.2   233  TYR233     -0.2867
     81  CB        22.7950  111.3240   54.6450 C.3   233  TYR233      0.0534
     82  CG        22.9260  110.1820   55.6440 C.ar  233  TYR233     -0.0201
     83  CD1       23.3450  110.4120   56.9610 C.ar  233  TYR233     -0.0009
     84  CD2       22.6620  108.8660   55.2610 C.ar  233  TYR233     -0.0009
     85  CE1       23.4970  109.3500   57.8710 C.ar  233  TYR233      0.0417
     86  CE2       22.8120  107.8030   56.1600 C.ar  233  TYR233      0.0417
     87  CZ        23.2300  108.0550   57.4570 C.ar  233  TYR233      0.1957
     88  OH        23.3820  107.0070   58.3330 O.3   233  TYR233     -0.2866
     89  N         24.3670  110.0250   49.0980 N.3   236  VAL236     -0.1231
     90  CA        23.5370  108.8790   48.7270 C.3   236  VAL236      0.1678
     91  C         22.7010  109.2290   47.5000 C.2   236  VAL236      0.2434
     92  O         22.4650  110.4010   47.2210 O.2   236  VAL236     -0.2733
     93  CB        22.5740  108.4840   49.8610 C.3   236  VAL236      0.0265
     94  CG1       23.3690  108.0590   51.0990 C.3   236  VAL236      0.0020
     95  CG2       21.6500  109.6490   50.1750 C.3   236  VAL236      0.0020
     96  N         22.2430  108.2140   46.7520 N.am  237  PRO237     -0.2729
     97  CA        21.4290  108.4460   45.5520 C.3   237  PRO237      0.1401
     98  C         20.1420  109.2200   45.8530 C.2   237  PRO237      0.2269
     99  O         19.4670  108.9570   46.8500 O.2   237  PRO237     -0.2865
    100  CB        21.1420  107.0290   45.0490 C.3   237  PRO237      0.0296
    101  CG        22.3320  106.2580   45.5080 C.3   237  PRO237      0.0237
    102  CD        22.5430  106.7810   46.9110 C.3   237  PRO237      0.0939
    103  N         17.0460  107.4560   46.6330 N.3   240  PHE240     -0.1227
    104  CA        17.0040  106.8910   47.9820 C.3   240  PHE240      0.1736
    105  C         16.6630  107.9470   49.0410 C.2   240  PHE240      0.2595
    106  O         15.7930  107.7360   49.8860 O.2   240  PHE240     -0.2718
    107  CB        18.3660  106.2510   48.2780 C.3   240  PHE240      0.0547
    108  CG        18.5000  105.6990   49.6680 C.ar  240  PHE240     -0.0202
    109  CD1       17.7260  104.6190   50.0840 C.ar  240  PHE240     -0.0042
    110  CD2       19.4190  106.2490   50.5550 C.ar  240  PHE240     -0.0042
    111  CE1       17.8690  104.0910   51.3690 C.ar  240  PHE240     -0.0003
    112  CE2       19.5700  105.7310   51.8410 C.ar  240  PHE240     -0.0003
    113  CZ        18.7950  104.6510   52.2470 C.ar  240  PHE240     -0.0000
    114  N         17.3690  109.0710   49.0040 N.am  241  MET241     -0.1979
    115  CA        17.1240  110.1670   49.9360 C.3   241  MET241      0.1605
    116  C         17.1530  111.4710   49.1530 C.2   241  MET241      0.2287
    117  O         18.1270  111.7570   48.4570 O.2   241  MET241     -0.2864
    118  CB        18.1970  110.2250   51.0310 C.3   241  MET241      0.0413
    119  CG        18.1170  109.1130   52.0790 C.3   241  MET241      0.0598
    120  SD        19.2680  109.4520   53.4440 S.3   241  MET241     -0.1393
    121  CE        18.7580  108.1590   54.6260 C.3   241  MET241      0.0692
@<TRIPOS>BOND
     1   100   101    1
     2   100    97    1
     3   101   102    1
     4    97    98    1
     5    97    96    1
     6    98    99    2
     7    42    43    1
     8   103   104    1
     9    96   102    1
    10    96    91   am
    11    92    91    2
    12    91    90    1
    13    43    44    1
    14    43    46    1
    15    47    46    1
    16    47    49    1
    17   104   107    1
    18   104   105    1
    19   107   108    1
    20    44    50   am
    21    44    45    2
    22   117   116    2
    23    56    50    1
    24    56    55    1
    25    46    48    1
    26    90    89    1
    27    90    93    1
    28    50    51    1
    29   114   105   am
    30   114   115    1
    31   105   106    2
    32   116   115    1
    33    55    54    1
    34    51    54    1
    35    51    52    1
    36   108   109   ar
    37   108   110   ar
    38    93    95    1
    39    93    94    1
    40   115   118    1
    41   109   111   ar
    42   110   112   ar
    43    52    53    2
    44   118   119    1
    45   111   113   ar
    46   112   113   ar
    47    80    79    2
    48   119   120    1
    49    19    18    1
    50    11    10   ar
    51    11     9   ar
    52    10     8   ar
    53    79    78    1
    54    18    17    1
    55    41    40   ar
    56    41    39   ar
    57    40    38   ar
    58    17    16    1
    59     9     7   ar
    60   120   121    1
    61     8     6   ar
    62    66    65    1
    63    61    62    1
    64    39    37   ar
    65    38    36   ar
    66    78    81    1
    67    78    77    1
    68    62    65    1
    69    62    63    1
    70    16    13    1
    71     7     6   ar
    72    81    82    1
    73     6     5    1
    74    65    67    1
    75    34    33    2
    76    57    58    1
    77    37    36   ar
    78    33    32    1
    79    36    35    1
    80    84    82   ar
    81    84    86   ar
    82    63    64    2
    83    13    12    1
    84    13    14    1
    85    82    83   ar
    86     5     2    1
    87    12     3   am
    88    58    59    1
    89    86    87   ar
    90    35    32    1
    91    59    60    2
    92    32    31    1
    93     4     3    2
    94     3     2    1
    95    14    15    2
    96     2     1    1
    97    83    85   ar
    98    87    85   ar
    99    87    88    1
   100    26    28   ar
   101    26    25   ar
   102    23    22    2
   103    28    30   ar
   104    24    25    1
   105    24    21    1
   106    25    27   ar
   107    20    21    1
   108    22    21    1
   109    30    29   ar
   110    27    29   ar
   111    76    75    1
   112    75    74    1
   113    74    73    1
   114    73    72    1
   115    71    70    2
   116    72    69    1
   117    68    69    1
   118    70    69    1
