@<TRIPOS>MOLECULE
tmp/1ls9A00.pdb
 226 217 0 0 0
SMALL
GASTEIGER

@<TRIPOS>ATOM
      1  N         -7.2520   14.0470   10.8190 N.3    12  VAL12      -0.1231
      2  CA        -7.1070   14.9290   11.9470 C.3    12  VAL12       0.1692
      3  C         -6.3400   16.1670   11.5190 C.2    12  VAL12       0.2592
      4  O         -6.6430   17.3030   11.9060 O.2    12  VAL12      -0.2718
      5  CB        -6.3780   14.2260   13.0790 C.3    12  VAL12       0.0266
      6  CG1       -6.0540   15.1960   14.2160 C.3    12  VAL12       0.0020
      7  CG2       -7.1720   13.0020   13.6420 C.3    12  VAL12       0.0020
      8  N         -5.3010   16.0050   10.6330 N.am   13  PHE13      -0.1976
      9  CA        -4.5210   17.1100   10.1960 C.3    13  PHE13       0.1639
     10  C         -5.3620   18.0790    9.4060 C.2    13  PHE13       0.2290
     11  O         -5.3120   19.2880    9.6320 O.2    13  PHE13      -0.2864
     12  CB        -3.3640   16.5970    9.3300 C.3    13  PHE13       0.0560
     13  CG        -2.4160   17.6920    8.9430 C.ar   13  PHE13      -0.0200
     14  CD1       -1.3450   17.9600    9.7620 C.ar   13  PHE13      -0.0042
     15  CD2       -2.5750   18.4000    7.7600 C.ar   13  PHE13      -0.0042
     16  CE1       -0.4490   18.9510    9.4370 C.ar   13  PHE13      -0.0003
     17  CE2       -1.6930   19.4410    7.4470 C.ar   13  PHE13      -0.0003
     18  CZ        -0.6140   19.6770    8.2950 C.ar   13  PHE13      -0.0000
     19  N         -7.6770   20.0820   11.7910 N.3    16  ASN16      -0.1225
     20  CA        -7.1640   20.8390   12.9280 C.3    16  ASN16       0.1785
     21  C         -5.8690   21.5570   12.6960 C.2    16  ASN16       0.2597
     22  O         -5.5030   22.4700   13.4800 O.2    16  ASN16      -0.2718
     23  CB        -6.9220   19.8970   14.1230 C.3    16  ASN16       0.1169
     24  CG        -8.2140   19.2510   14.5870 C.2    16  ASN16       0.2627
     25  OD1       -8.9860   19.9530   15.3230 O.2    16  ASN16      -0.2716
     26  ND2       -8.4570   18.0680   14.1240 N.am   16  ASN16      -0.0877
     27  N         -5.0640   21.1650   11.7140 N.am   17  CYS17      -0.1970
     28  CA        -3.7140   21.6450   11.5970 C.3    17  CYS17       0.1712
     29  C         -3.4080   22.3740   10.3100 C.2    17  CYS17       0.2296
     30  O         -2.5030   23.2040   10.3000 O.2    17  CYS17      -0.2864
     31  CB        -2.7190   20.4720   11.6690 C.3    17  CYS17       0.0983
     32  SG        -3.0980   19.2130   12.9390 S.3    17  CYS17      -0.0798
     33  N         -4.8350   24.7290    8.8940 N.3    19  ALA19      -0.1231
     34  CA        -5.0300   26.1340    8.9890 C.3    19  ALA19       0.1694
     35  C         -3.7240   26.9050    9.1660 C.2    19  ALA19       0.2592
     36  O         -3.6160   28.0510    8.8190 O.2    19  ALA19      -0.2718
     37  CB        -6.0080   26.4990   10.1020 C.3    19  ALA19       0.0304
     38  N         -2.7660   26.2700    9.8890 N.am   20  CYS20      -0.1956
     39  CA        -1.4860   26.9280   10.1100 C.3    20  CYS20       0.1843
     40  C         -0.3260   26.1660    9.4540 C.2    20  CYS20       0.2625
     41  O          0.7500   26.7680    9.3830 O.2    20  CYS20      -0.2714
     42  CB        -1.1550   27.0210   11.5800 C.3    20  CYS20       0.0997
     43  SG        -2.4200   27.9870   12.4460 S.3    20  CYS20      -0.0797
     44  N         -0.5630   24.9210    9.0170 N.am   21  HIS21      -0.1973
     45  CA         0.5210   24.1390    8.4750 C.3    21  HIS21       0.1656
     46  C          0.1560   23.6310    7.0640 C.2    21  HIS21       0.2291
     47  O          0.6130   22.5460    6.6980 O.2    21  HIS21      -0.2864
     48  CB         0.8640   22.9500    9.3680 C.3    21  HIS21       0.0771
     49  CG         1.4230   23.3480   10.6900 C.ar   21  HIS21       0.0820
     50  ND1        2.6230   23.9940   10.8300 N.ar   21  HIS21      -0.2267
     51  CD2        0.9290   23.1560   11.9450 C.ar   21  HIS21       0.1154
     52  CE1        2.8530   24.1590   12.1960 C.ar   21  HIS21       0.1986
     53  NE2        1.8560   23.6660   12.8720 N.ar   21  HIS21      -0.2212
     54  N          4.3980   26.6140    7.5530 N.3    26  ASN26      -0.1240
     55  CA         3.9160   27.2660    8.7750 C.3    26  ASN26       0.1653
     56  C          3.5510   28.7080    8.4060 C.2    26  ASN26       0.2266
     57  O          4.4480   29.4990    8.1110 O.2    26  ASN26      -0.2867
     58  CB         4.9620   27.1590    9.8380 C.3    26  ASN26       0.1155
     59  CG         4.4590   27.6180   11.2070 C.2    26  ASN26       0.2627
     60  OD1        3.6340   28.5480   11.2790 O.2    26  ASN26      -0.2716
     61  ND2        4.9580   27.0040   12.2760 N.am   26  ASN26      -0.0877
     62  N          2.2400   30.8950   10.3140 N.3    28  VAL28      -0.1231
     63  CA         2.3750   31.7790   11.4360 C.3    28  VAL28       0.1692
     64  C          3.8120   32.1760   11.6870 C.2    28  VAL28       0.2591
     65  O          4.1250   33.3480   11.9360 O.2    28  VAL28      -0.2718
     66  CB         1.6850   31.1500   12.6900 C.3    28  VAL28       0.0266
     67  CG1        1.9500   31.9570   13.9230 C.3    28  VAL28       0.0020
     68  CG2        0.2090   30.9580   12.4300 C.3    28  VAL28       0.0020
     69  N          4.7060   31.1950   11.6670 N.am   29  LEU29      -0.1980
     70  CA         6.1470   31.4190   11.8900 C.3    29  LEU29       0.1596
     71  C          6.8370   30.6180   10.8280 C.2    29  LEU29       0.2287
     72  O          6.9920   29.3920   10.9400 O.2    29  LEU29      -0.2864
     73  CB         6.5070   31.0200   13.3190 C.3    29  LEU29       0.0297
     74  CG         7.9420   31.2890   13.6770 C.3    29  LEU29       0.0022
     75  CD1        8.2510   32.7890   13.5940 C.3    29  LEU29       0.0001
     76  CD2        8.2150   30.7580   15.1140 C.3    29  LEU29       0.0001
     77  N          9.3660   27.4910   10.9090 N.3    32  LYS32      -0.1231
     78  CA         9.1920   26.3170   11.7840 C.3    32  LYS32       0.1693
     79  C          8.1470   25.3890   11.1980 C.2    32  LYS32       0.2593
     80  O          7.0570   25.2110   11.7520 O.2    32  LYS32      -0.2718
     81  CB         8.9560   26.7880   13.2080 C.3    32  LYS32       0.0285
     82  CG        10.1620   27.6300   13.6810 C.3    32  LYS32       0.0035
     83  CD        10.2730   27.6970   15.2200 C.3    32  LYS32       0.0206
     84  CE        11.5110   28.4950   15.5590 C.3    32  LYS32       0.1093
     85  NZ        11.7220   28.5320   17.0520 N.3    32  LYS32      -0.1314
     86  N          8.5120   24.8320   10.0400 N.am   33  THR33      -0.1939
     87  CA         7.6160   23.9850    9.2710 C.3    33  THR33       0.2028
     88  C          7.5790   22.5630    9.7700 C.2    33  THR33       0.2642
     89  O          8.2870   22.1740   10.7210 O.2    33  THR33      -0.2714
     90  CB         8.0110   24.0030    7.7980 C.3    33  THR33       0.1808
     91  OG1        9.2280   23.2530    7.6990 O.3    33  THR33      -0.2208
     92  CG2        8.1850   25.4220    7.2740 C.3    33  THR33       0.0379
     93  N          6.8060   21.7270    9.0750 N.am   34  LEU34      -0.1977
     94  CA         6.6890   20.3390    9.3900 C.3    34  LEU34       0.1596
     95  C          7.5950   19.4860    8.4990 C.2    34  LEU34       0.2287
     96  O          7.4790   18.2610    8.4530 O.2    34  LEU34      -0.2864
     97  CB         5.2600   19.8670    9.3320 C.3    34  LEU34       0.0297
     98  CG         4.2510   20.7210   10.1240 C.3    34  LEU34       0.0022
     99  CD1        2.9220   20.0250   10.1040 C.3    34  LEU34       0.0001
    100  CD2        4.7210   20.9330   11.5520 C.3    34  LEU34       0.0001
    101  N         13.4930   21.3350    8.9900 N.3    38  ALA38      -0.1231
    102  CA        13.0230   22.3070    9.9610 C.3    38  ALA38       0.1694
    103  C         12.7880   21.6550   11.2970 C.2    38  ALA38       0.2591
    104  O         13.1380   22.1870   12.3720 O.2    38  ALA38      -0.2718
    105  CB        11.7570   22.9610    9.4780 C.3    38  ALA38       0.0304
    106  N         12.1320   20.4900   11.3040 N.am   39  ILE39      -0.1980
    107  CA        11.9190   19.7810   12.5750 C.3    39  ILE39       0.1595
    108  C         13.2520   19.4590   13.2050 C.2    39  ILE39       0.2287
    109  O         13.4460   19.6550   14.4270 O.2    39  ILE39      -0.2864
    110  CB        11.0470   18.5410   12.3690 C.3    39  ILE39       0.0276
    111  CG1        9.5870   18.9970   12.0910 C.3    39  ILE39       0.0022
    112  CG2       11.1430   17.6070   13.5450 C.3    39  ILE39       0.0022
    113  CD1        8.6640   17.8750   11.6840 C.3    39  ILE39       0.0001
    114  N         14.6030   22.8480   14.6730 N.3    42  TYR42      -0.1227
    115  CA        13.8560   23.6620   15.6180 C.3    42  TYR42       0.1736
    116  C         13.0640   22.9060   16.6120 C.2    42  TYR42       0.2595
    117  O         12.8670   23.4770   17.7130 O.2    42  TYR42      -0.2718
    118  CB        12.8500   24.5650   14.8200 C.3    42  TYR42       0.0548
    119  CG        13.5510   25.5700   13.9200 C.ar   42  TYR42      -0.0200
    120  CD1       14.3960   26.5260   14.4160 C.ar   42  TYR42      -0.0009
    121  CD2       13.3880   25.5260   12.5190 C.ar   42  TYR42      -0.0009
    122  CE1       15.0330   27.4230   13.6100 C.ar   42  TYR42       0.0417
    123  CE2       13.9990   26.4270   11.6570 C.ar   42  TYR42       0.0417
    124  CZ        14.8340   27.3610   12.2470 C.ar   42  TYR42       0.1957
    125  OH        15.4500   28.2750   11.4150 O.3    42  TYR42      -0.2866
    126  N         12.6340   21.6700   16.3970 N.am   43  LEU43      -0.1980
    127  CA        11.7640   21.0240   17.3710 C.3    43  LEU43       0.1596
    128  C         12.6170   20.4420   18.4810 C.2    43  LEU43       0.2287
    129  O         13.5500   19.7140   18.2570 O.2    43  LEU43      -0.2864
    130  CB        10.9940   19.8800   16.6820 C.3    43  LEU43       0.0297
    131  CG        10.0160   19.1340   17.5550 C.3    43  LEU43       0.0022
    132  CD1        8.9710   20.0230   18.1920 C.3    43  LEU43       0.0001
    133  CD2        9.3460   17.9970   16.7920 C.3    43  LEU43       0.0001
    134  N          7.4080   15.0860   18.2620 N.3    52  ILE52      -0.1245
    135  CA         6.2810   15.6070   17.5640 C.3    52  ILE52       0.1561
    136  C          5.0600   15.5190   18.5020 C.2    52  ILE52       0.2260
    137  O          4.3250   16.5010   18.6530 O.2    52  ILE52      -0.2867
    138  CB         6.0330   14.9010   16.2130 C.3    52  ILE52       0.0252
    139  CG1        7.1790   15.3270   15.2330 C.3    52  ILE52       0.0019
    140  CG2        4.6630   15.2090   15.6990 C.3    52  ILE52       0.0019
    141  CD1        7.2540   14.3970   14.0450 C.3    52  ILE52       0.0001
    142  N          5.0340   18.0450   21.3590 N.3    55  GLN55      -0.1231
    143  CA         4.6080   19.3990   21.0090 C.3    55  GLN55       0.1698
    144  C          3.1570   19.4610   20.6330 C.2    55  GLN55       0.2592
    145  O          2.4530   20.4600   20.9110 O.2    55  GLN55      -0.2718
    146  CB         5.5330   20.0380   20.0170 C.3    55  GLN55       0.0381
    147  CG         5.1660   21.5360   19.8460 C.3    55  GLN55       0.0905
    148  CD         6.3320   22.3260   19.2710 C.2    55  GLN55       0.2608
    149  OE1        7.3550   22.2810   20.0410 O.2    55  GLN55      -0.2717
    150  NE2        6.0580   23.0190   18.2140 N.am   55  GLN55      -0.0878
    151  N          2.6320   18.4590   19.9430 N.am   56  VAL56      -0.1980
    152  CA         1.1870   18.4510   19.6420 C.3    56  VAL56       0.1595
    153  C          0.4140   18.4560   20.9890 C.2    56  VAL56       0.2287
    154  O         -0.5460   19.2120   21.0990 O.2    56  VAL56      -0.2864
    155  CB         0.8780   17.2490   18.7570 C.3    56  VAL56       0.0276
    156  CG1       -0.6210   17.0890   18.6330 C.3    56  VAL56       0.0022
    157  CG2        1.4970   17.4200   17.3920 C.3    56  VAL56       0.0022
    158  N          3.5970   25.1090   21.9970 N.3    60  LYS60      -0.1227
    159  CA         4.7830   25.8910   22.0900 C.3    60  LYS60       0.1736
    160  C          4.5390   27.2360   21.4910 C.2    60  LYS60       0.2596
    161  O          4.1830   27.3100   20.2800 O.2    60  LYS60      -0.2718
    162  CB         6.0460   25.3210   21.4280 C.3    60  LYS60       0.0541
    163  CG         7.2800   26.2110   21.5270 C.2    60  LYS60      -0.0272
    164  CD         8.5810   25.5900   21.0960 C.2    60  LYS60      -0.0103
    165  CE         9.8190   26.4280   21.1300 C.3    60  LYS60       0.1350
    166  NZ         9.8000   27.5700   20.2350 N.3    60  LYS60      -0.1262
    167  N          4.6820   28.3380   22.2080 N.am   61  GLY61      -0.1942
    168  CA         4.4780   29.6100   21.6010 C.3    61  GLY61       0.2014
    169  C          3.0710   29.7450   21.0690 C.2    61  GLY61       0.2639
    170  O          2.0820   29.5130   21.7170 O.2    61  GLY61      -0.2714
    171  N          2.9790   30.0940   19.7540 N.am   62  ALA62      -0.1963
    172  CA         1.6910   30.2370   19.0850 C.3    62  ALA62       0.1728
    173  C          1.1660   28.8880   18.5220 C.2    62  ALA62       0.2616
    174  O          0.1010   28.8710   17.9050 O.2    62  ALA62      -0.2715
    175  CB         1.7790   31.2790   17.9760 C.3    62  ALA62       0.0334
    176  N          1.8830   27.8140   18.7600 N.am   63  MET63      -0.1964
    177  CA         1.4480   26.4110   18.4380 C.3    63  MET63       0.1722
    178  C          0.5480   26.0670   19.6170 C.2    63  MET63       0.2458
    179  O          1.0660   25.8150   20.7360 O.2    63  MET63      -0.2730
    180  CB         2.6260   25.5260   18.2680 C.3    63  MET63       0.0427
    181  CG         2.4250   24.0650   18.3200 C.3    63  MET63       0.0599
    182  SD         1.2070   23.4860   17.0770 S.3    63  MET63      -0.1393
    183  CE         1.1530   21.7680   17.6340 C.3    63  MET63       0.0692
    184  N         -0.7040   25.8260   19.3660 N.am   64  PRO64      -0.2727
    185  CA        -1.5920   25.4620   20.4590 C.3    64  PRO64       0.1402
    186  C         -1.2830   24.0690   21.0170 C.2    64  PRO64       0.2269
    187  O         -0.6920   23.2000   20.3240 O.2    64  PRO64      -0.2865
    188  CB        -2.9520   25.3240   19.7840 C.3    64  PRO64       0.0296
    189  CG        -2.8650   26.2040   18.5520 C.3    64  PRO64       0.0237
    190  CD        -1.4410   25.9650   18.0930 C.3    64  PRO64       0.0939
    191  N         -2.7860   20.5230   22.2490 N.3    66  TRP66      -0.1241
    192  CA        -3.9650   19.7680   21.8190 C.3    66  TRP66       0.1605
    193  C         -4.3710   18.6910   22.8000 C.2    66  TRP66       0.2264
    194  O         -5.4230   18.0450   22.5270 O.2    66  TRP66      -0.2867
    195  CB        -3.6750   19.1360   20.4270 C.3    66  TRP66       0.0550
    196  CG        -3.4880   20.2030   19.3920 C.ar   66  TRP66       0.0003
    197  CD1       -2.3020   20.8590   19.0930 C.ar   66  TRP66       0.0946
    198  CD2       -4.5450   20.8430   18.6700 C.ar   66  TRP66       0.0152
    199  NE1       -2.6180   21.8340   18.1540 N.ar   66  TRP66      -0.2442
    200  CE2       -3.9510   21.8630   17.8950 C.ar   66  TRP66       0.0810
    201  CE3       -5.9310   20.6600   18.6020 C.ar   66  TRP66       0.0012
    202  CZ2       -4.6710   22.7200   17.0740 C.ar   66  TRP66       0.0191
    203  CZ3       -6.6310   21.4730   17.7340 C.ar   66  TRP66       0.0001
    204  CH2       -6.0070   22.4890   16.9810 C.ar   66  TRP66       0.0015
    205  N         -8.1210   17.0430   21.6390 N.3    70  LEU70      -0.1245
    206  CA        -8.1520   15.8620   20.8160 C.3    70  LEU70       0.1561
    207  C         -7.9310   14.6710   21.7270 C.2    70  LEU70       0.2260
    208  O         -7.0830   14.7450   22.6080 O.2    70  LEU70      -0.2867
    209  CB        -7.0560   15.8880   19.7260 C.3    70  LEU70       0.0270
    210  CG        -7.3030   16.9790   18.6710 C.3    70  LEU70       0.0019
    211  CD1       -6.0930   17.0560   17.7710 C.3    70  LEU70       0.0001
    212  CD2       -8.5510   16.6910   17.7860 C.3    70  LEU70       0.0001
    213  N         -2.3530   11.8430   14.2990 N.3    78  VAL78      -0.1245
    214  CA        -1.8370   13.0330   13.6070 C.3    78  VAL78       0.1561
    215  C         -0.3370   13.1150   13.7940 C.2    78  VAL78       0.2260
    216  O          0.4130   13.5540   12.8880 O.2    78  VAL78      -0.2867
    217  CB        -2.5500   14.3050   14.0010 C.3    78  VAL78       0.0252
    218  CG1       -2.1210   14.8300   15.3640 C.3    78  VAL78       0.0019
    219  CG2       -2.3310   15.3830   12.9220 C.3    78  VAL78       0.0019
    220  N          2.2860   13.3530   10.7110 N.3    82  VAL82      -0.1245
    221  CA         3.2930   14.3490   10.5530 C.3    82  VAL82       0.1561
    222  C          4.6660   13.6960   10.4730 C.2    82  VAL82       0.2260
    223  O          5.4750   14.1090    9.6130 O.2    82  VAL82      -0.2867
    224  CB         3.2250   15.3940   11.6350 C.3    82  VAL82       0.0252
    225  CG1        4.4200   16.3180   11.6480 C.3    82  VAL82       0.0019
    226  CG2        1.9180   16.1930   11.5080 C.3    82  VAL82       0.0019
@<TRIPOS>BOND
     1    47    46    2
     2    46    45    1
     3    92    90    1
     4    17    15   ar
     5    17    18   ar
     6    54    55    1
     7    91    90    1
     8    15    13   ar
     9    90    87    1
    10    57    56    2
    11    18    16   ar
    12    56    55    1
    13    96    95    2
    14    45    44    1
    15    45    48    1
    16    95    94    1
    17    55    58    1
    18    36    35    2
    19    33    34    1
    20    13    12    1
    21    13    14   ar
    22    34    35    1
    23    34    37    1
    24   101   102    1
    25    44    40   am
    26    93    94    1
    27    93    88   am
    28    35    38   am
    29    87    88    1
    30    87    86    1
    31    12     9    1
    32    97    94    1
    33    97    98    1
    34    48    49    1
    35    41    40    2
    36    10    11    2
    37    10     9    1
    38    16    14   ar
    39    40    39    1
    40   105   102    1
    41   223   222    2
    42    88    89    2
    43    58    59    1
    44    38    39    1
    45   102   103    1
    46    86    79   am
    47    99    98    1
    48    39    42    1
    49    98   100    1
    50     9     8    1
    51    30    29    2
    52    29    28    1
    53    62    63    1
    54   222   221    1
    55   221   220    1
    56   221   224    1
    57     8     3   am
    58    49    50   ar
    59    49    51   ar
    60     1     2    1
    61    71    72    2
    62    71    70    1
    63    50    52   ar
    64    77    78    1
    65    79    80    2
    66    79    78    1
    67    59    60    2
    68    59    61   am
    69   103   106   am
    70   103   104    2
    71   106   107    1
    72   125   124    1
    73    63    64    1
    74    63    66    1
    75   226   224    1
    76     3     4    2
    77     3     2    1
    78    42    43    1
    79    28    31    1
    80    28    27    1
    81   224   225    1
    82   123   124   ar
    83   123   121   ar
    84    69    64   am
    85    69    70    1
    86    31    32    1
    87   113   111    1
    88    64    65    2
    89    27    21   am
    90    78    81    1
    91    19    20    1
    92    70    73    1
    93    51    53   ar
    94     2     5    1
    95   111   110    1
    96    52    53   ar
    97   124   122   ar
    98   110   107    1
    99   110   112    1
   100    68    66    1
   101   121   119   ar
   102   107   108    1
   103    66    67    1
   104    21    20    1
   105    21    22    2
   106   216   215    2
   107   219   217    1
   108    20    23    1
   109     5     7    1
   110     5     6    1
   111   108   109    2
   112    81    82    1
   113    73    74    1
   114    75    74    1
   115   214   215    1
   116   214   217    1
   117   214   213    1
   118   122   120   ar
   119    74    76    1
   120    82    83    1
   121   119   120   ar
   122   119   118    1
   123   217   218    1
   124   141   139    1
   125    23    24    1
   126    26    24   am
   127    24    25    2
   128   114   115    1
   129   118   115    1
   130    83    84    1
   131   139   138    1
   132    84    85    1
   133   115   116    1
   134   140   138    1
   135   138   135    1
   136   126   116   am
   137   126   127    1
   138   116   117    2
   139   130   127    1
   140   130   131    1
   141   133   131    1
   142   204   202   ar
   143   204   203   ar
   144   202   200   ar
   145   182   183    1
   146   182   181    1
   147   127   128    1
   148   157   155    1
   149   131   132    1
   150   135   134    1
   151   135   136    1
   152   203   201   ar
   153   211   210    1
   154   212   210    1
   155   200   199   ar
   156   200   198   ar
   157   174   173    2
   158   175   172    1
   159   190   189    1
   160   190   184    1
   161   199   197   ar
   162   150   148   am
   163   129   128    2
   164   180   181    1
   165   180   177    1
   166   177   176    1
   167   177   178    1
   168   136   137    2
   169   173   176   am
   170   173   172    1
   171   189   188    1
   172   201   198   ar
   173   156   155    1
   174   198   196   ar
   175   210   209    1
   176   155   152    1
   177   172   171    1
   178   197   196   ar
   179   148   147    1
   180   148   149    2
   181   184   178   am
   182   184   185    1
   183   196   195    1
   184   178   179    2
   185   152   151    1
   186   152   153    1
   187   209   206    1
   188   171   169   am
   189   188   185    1
   190   147   146    1
   191   151   144   am
   192   146   143    1
   193   166   165    1
   194   161   160    2
   195   187   186    2
   196   195   192    1
   197   185   186    1
   198   144   145    2
   199   144   143    1
   200   206   205    1
   201   206   207    1
   202   153   154    2
   203   143   142    1
   204   169   168    1
   205   169   170    2
   206   164   165    1
   207   164   163    2
   208   162   163    1
   209   162   159    1
   210   160   159    1
   211   160   167   am
   212   168   167    1
   213   207   208    2
   214   192   191    1
   215   192   193    1
   216   158   159    1
   217   194   193    2
