@<TRIPOS>MOLECULE
tmp/1lshA05.pdb
 74 68 0 0 0
SMALL
GASTEIGER

@<TRIPOS>ATOM
      1  N         49.4100   39.9610   29.8570 N.3   753  THR753     -0.1218
      2  CA        49.4520   41.1110   28.9670 C.3   753  THR753      0.1862
      3  C         48.0710   41.3460   28.2850 C.2   753  THR753      0.2287
      4  O         47.2950   40.4090   28.0470 O.2   753  THR753     -0.2866
      5  CB        50.4720   40.9110   27.8540 C.3   753  THR753      0.1770
      6  OG1       50.4710   42.0770   27.0280 O.3   753  THR753     -0.2211
      7  CG2       50.0180   39.7760   26.9820 C.3   753  THR753      0.0375
      8  N         46.1340   43.8130   25.3240 N.3   755  ASN755     -0.1240
      9  CA        46.3310   44.8720   24.3400 C.3   755  ASN755      0.1653
     10  C         45.0150   45.0180   23.5820 C.2   755  ASN755      0.2266
     11  O         44.4020   44.0120   23.2350 O.2   755  ASN755     -0.2867
     12  CB        47.4140   44.5060   23.3170 C.3   755  ASN755      0.1155
     13  CG        48.7310   44.0500   23.9690 C.2   755  ASN755      0.2627
     14  OD1       48.9950   42.8480   24.1080 O.2   755  ASN755     -0.2716
     15  ND2       49.5560   45.0070   24.3590 N.am  755  ASN755     -0.0877
     16  N         48.0370   49.3650   25.7770 N.3   788  THR788     -0.1203
     17  CA        48.8900   48.1930   25.8640 C.3   788  THR788      0.1994
     18  C         49.2960   48.2250   27.3180 C.2   788  THR788      0.2619
     19  O         49.4610   49.2930   27.9070 O.2   788  THR788     -0.2717
     20  CB        50.1060   48.2840   24.9100 C.3   788  THR788      0.1784
     21  OG1       50.8680   47.0620   24.9480 O.3   788  THR788     -0.2211
     22  CG2       51.0320   49.4350   25.3100 C.3   788  THR788      0.0376
     23  N         49.0850   47.1220   27.9780 N.am  789  SER789     -0.1937
     24  CA        49.4270   47.1000   29.4140 C.3   789  SER789      0.2055
     25  C         49.9250   45.7170   29.7810 C.2   789  SER789      0.2642
     26  O         49.5700   44.7410   29.1260 O.2   789  SER789     -0.2714
     27  CB        48.2220   47.4700   30.2670 C.3   789  SER789      0.2130
     28  OG        47.2990   46.4210   30.2530 O.3   789  SER789     -0.2179
     29  N         50.6000   45.6120   30.9150 N.am  790  MET790     -0.1976
     30  CA        51.3130   44.3610   31.2490 C.3   790  MET790      0.1605
     31  C         51.5350   44.4080   32.7240 C.2   790  MET790      0.2287
     32  O         51.5880   45.4970   33.3220 O.2   790  MET790     -0.2864
     33  CB        52.6590   44.4200   30.5350 C.3   790  MET790      0.0413
     34  CG        53.4460   43.1540   30.3580 C.3   790  MET790      0.0598
     35  SD        55.0630   43.4970   29.4230 S.3   790  MET790     -0.1393
     36  CE        55.5560   45.0590   30.1420 C.3   790  MET790      0.0692
     37  N         52.8140   47.9700   33.9450 N.3   817  ALA817     -0.1231
     38  CA        53.0740   49.0730   33.0860 C.3   817  ALA817      0.1694
     39  C         51.9320   49.1750   32.0910 C.2   817  ALA817      0.2593
     40  O         51.2500   48.1920   31.7860 O.2   817  ALA817     -0.2718
     41  CB        54.3990   48.8950   32.3520 C.3   817  ALA817      0.0304
     42  N         51.6910   50.3920   31.6240 N.am  818  GLY818     -0.1942
     43  CA        50.6230   50.5600   30.6740 C.3   818  GLY818      0.2014
     44  C         50.6430   51.9260   30.0290 C.2   818  GLY818      0.2638
     45  O         50.8100   52.9160   30.7490 O.2   818  GLY818     -0.2714
     46  N         50.3520   52.0040   28.7220 N.am  819  LEU819     -0.1977
     47  CA        50.2610   53.3220   28.1140 C.3   819  LEU819      0.1596
     48  C         49.0000   53.3430   27.2790 C.2   819  LEU819      0.2287
     49  O         48.5120   52.2880   26.9180 O.2   819  LEU819     -0.2864
     50  CB        51.4710   53.5960   27.2320 C.3   819  LEU819      0.0297
     51  CG        51.3510   55.0180   26.6840 C.3   819  LEU819      0.0022
     52  CD1       51.3800   55.9950   27.8540 C.3   819  LEU819      0.0001
     53  CD2       52.4530   55.3080   25.6760 C.3   819  LEU819      0.0001
     54  N         52.2310   55.2240   34.9640 N.3   847  VAL847     -0.1231
     55  CA        52.5090   54.4290   33.7900 C.3   847  VAL847      0.1692
     56  C         53.3110   53.1550   34.0970 C.2   847  VAL847      0.2591
     57  O         53.3490   52.2580   33.2520 O.2   847  VAL847     -0.2718
     58  CB        53.1050   55.2630   32.6340 C.3   847  VAL847      0.0266
     59  CG1       52.1080   56.2750   32.1420 C.3   847  VAL847      0.0020
     60  CG2       54.3470   55.9860   33.0090 C.3   847  VAL847      0.0020
     61  N         54.1450   53.1870   35.1500 N.am  848  VAL848     -0.1980
     62  CA        54.8710   52.0010   35.6570 C.3   848  VAL848      0.1595
     63  C         54.6810   51.9240   37.1660 C.2   848  VAL848      0.2287
     64  O         54.9220   52.9230   37.8350 O.2   848  VAL848     -0.2864
     65  CB        56.3840   51.9900   35.3530 C.3   848  VAL848      0.0276
     66  CG1       56.9830   50.6510   35.7820 C.3   848  VAL848      0.0022
     67  CG2       56.6470   52.1340   33.8520 C.3   848  VAL848      0.0022
     68  N         56.5360   55.4210   38.0350 N.3   933  VAL933     -0.1245
     69  CA        56.9420   56.2640   36.9110 C.3   933  VAL933      0.1561
     70  C         55.6130   56.9140   36.4440 C.2   933  VAL933      0.2260
     71  O         54.6560   56.2310   36.1350 O.2   933  VAL933     -0.2867
     72  CB        57.4450   55.4210   35.7130 C.3   933  VAL933      0.0252
     73  CG1       57.3190   56.2090   34.4290 C.3   933  VAL933      0.0019
     74  CG2       58.8850   55.0130   35.8860 C.3   933  VAL933      0.0019
@<TRIPOS>BOND
     1    11    10    2
     2    12    13    1
     3    12     9    1
     4    10     9    1
     5    13    14    2
     6    13    15   am
     7     9     8    1
     8    20    21    1
     9    20    22    1
    10    20    17    1
    11    53    51    1
    12    16    17    1
    13    17    18    1
    14    51    50    1
    15    51    52    1
    16    49    48    2
    17     7     5    1
    18     6     5    1
    19    50    47    1
    20    48    47    1
    21    18    19    2
    22    18    23   am
    23     5     2    1
    24    23    24    1
    25     4     3    2
    26    47    46    1
    27     3     2    1
    28    46    44   am
    29     2     1    1
    30    26    25    2
    31    24    25    1
    32    24    27    1
    33    35    36    1
    34    35    34    1
    35    25    29   am
    36    44    43    1
    37    44    45    2
    38    28    27    1
    39    34    33    1
    40    33    30    1
    41    43    42    1
    42    29    30    1
    43    30    31    1
    44    42    39   am
    45    40    39    2
    46    39    38    1
    47    59    58    1
    48    41    38    1
    49    58    60    1
    50    58    55    1
    51    31    32    2
    52    38    37    1
    53    57    56    2
    54    55    56    1
    55    55    54    1
    56    67    65    1
    57    56    61   am
    58    73    72    1
    59    61    62    1
    60    65    62    1
    61    65    66    1
    62    62    63    1
    63    72    74    1
    64    72    69    1
    65    71    70    2
    66    70    69    1
    67    69    68    1
    68    63    64    2
