@<TRIPOS>MOLECULE
tmp/1lshB06.pdb
 69 64 0 0 0
SMALL
GASTEIGER

@<TRIPOS>ATOM
      1  N         70.7550   69.2470   12.4730 N.3    39  ILE39      -0.1245
      2  CA        69.4820   69.2540   13.1670 C.3    39  ILE39       0.1561
      3  C         69.3250   70.6080   13.8540 C.2    39  ILE39       0.2260
      4  O         70.1940   71.0180   14.6170 O.2    39  ILE39      -0.2867
      5  CB        69.3940   68.1810   14.2700 C.3    39  ILE39       0.0252
      6  CG1       69.7810   66.8060   13.7210 C.3    39  ILE39       0.0019
      7  CG2       67.9930   68.1320   14.8510 C.3    39  ILE39       0.0019
      8  CD1       69.2550   65.6210   14.5490 C.3    39  ILE39       0.0001
      9  N         68.2140   74.8920   19.1880 N.3    52  LEU52      -0.1245
     10  CA        69.1720   73.8050   19.3480 C.3    52  LEU52       0.1561
     11  C         69.7240   73.5180   17.9490 C.2    52  LEU52       0.2260
     12  O         68.9570   73.4190   16.9890 O.2    52  LEU52      -0.2867
     13  CB        68.5230   72.5710   19.9770 C.3    52  LEU52       0.0270
     14  CG        69.5150   71.4400   20.2810 C.3    52  LEU52       0.0019
     15  CD1       69.4710   71.0900   21.7550 C.3    52  LEU52       0.0001
     16  CD2       69.2220   70.2150   19.4230 C.3    52  LEU52       0.0001
     17  N         72.5830   71.1950   15.9100 N.3    54  ALA54      -0.1231
     18  CA        73.5170   70.0890   15.9980 C.3    54  ALA54       0.1694
     19  C         74.0370   69.6970   14.6110 C.2    54  ALA54       0.2591
     20  O         73.2560   69.4960   13.6740 O.2    54  ALA54      -0.2718
     21  CB        72.8630   68.9010   16.6920 C.3    54  ALA54       0.0304
     22  N         75.3680   69.6300   14.5040 N.am   55  LYS55      -0.1980
     23  CA        76.0490   69.3380   13.2550 C.3    55  LYS55       0.1596
     24  C         76.8970   68.0620   13.2980 C.2    55  LYS55       0.2287
     25  O         77.5900   67.7710   14.2720 O.2    55  LYS55      -0.2864
     26  CB        76.9760   70.5020   12.8970 C.3    55  LYS55       0.0298
     27  CG        76.4720   71.8970   13.2920 C.3    55  LYS55       0.0038
     28  CD        77.3850   73.0030   12.7050 C.3    55  LYS55       0.0206
     29  CE        76.9480   74.3880   13.1310 C.3    55  LYS55       0.1093
     30  NZ        77.8230   75.4390   12.5480 N.3    55  LYS55      -0.1314
     31  N         81.2750   66.6020   15.4600 N.3    66  ALA66      -0.1231
     32  CA        79.8780   66.8410   15.7500 C.3    66  ALA66       0.1694
     33  C         79.7880   67.8820   16.8260 C.2    66  ALA66       0.2592
     34  O         80.3730   67.7350   17.8940 O.2    66  ALA66      -0.2718
     35  CB        79.1930   65.5630   16.2050 C.3    66  ALA66       0.0304
     36  N         79.1530   68.9950   16.5180 N.am   67  ALA67      -0.1966
     37  CA        79.0100   70.0010   17.5580 C.3    67  ALA67       0.1728
     38  C         77.5580   70.1360   17.9580 C.2    67  ALA67       0.2616
     39  O         76.6370   69.6660   17.2710 O.2    67  ALA67      -0.2715
     40  CB        79.5710   71.3360   17.1000 C.3    67  ALA67       0.0334
     41  N         77.3630   70.7390   19.1100 N.am   68  ILE68      -0.1977
     42  CA        76.0150   71.0160   19.5500 C.3    68  ILE68       0.1596
     43  C         75.9660   72.3700   20.2220 C.2    68  ILE68       0.2287
     44  O         76.8080   72.6940   21.0650 O.2    68  ILE68      -0.2864
     45  CB        75.4390   69.9190   20.4570 C.3    68  ILE68       0.0276
     46  CG1       74.0320   70.3110   20.9070 C.3    68  ILE68       0.0022
     47  CG2       76.3210   69.6880   21.6600 C.3    68  ILE68       0.0022
     48  CD1       73.2500   69.1840   21.5110 C.3    68  ILE68       0.0001
     49  N         79.0830   72.2240   22.8510 N.3    79  ALA79      -0.1231
     50  CA        79.7060   70.9640   23.1890 C.3    79  ALA79       0.1694
     51  C         79.9650   70.2270   21.8810 C.2    79  ALA79       0.2592
     52  O         79.0660   70.1540   21.0460 O.2    79  ALA79      -0.2718
     53  CB        78.8110   70.1440   24.1250 C.3    79  ALA79       0.0304
     54  N         81.2360   69.8430   21.6750 N.am   80  MET80      -0.1965
     55  CA        81.7620   69.1090   20.5110 C.3    80  MET80       0.1736
     56  C         82.1360   67.6680   20.8950 C.2    80  MET80       0.2616
     57  O         82.3630   67.3610   22.0750 O.2    80  MET80      -0.2715
     58  CB        83.0500   69.7780   20.0030 C.3    80  MET80       0.0427
     59  CG        82.9020   70.9970   19.0990 C.3    80  MET80       0.0599
     60  SD        84.4560   71.9580   18.9220 S.3    80  MET80      -0.1393
     61  CE        85.0700   71.4230   17.3180 C.3    80  MET80       0.0692
     62  N         82.3070   66.8150   19.8790 N.am   81  LEU81      -0.1977
     63  CA        82.6800   65.4190   20.0900 C.3    81  LEU81       0.1596
     64  C         83.4270   64.8710   18.9000 C.2    81  LEU81       0.2287
     65  O         82.8230   64.1860   18.0780 O.2    81  LEU81      -0.2864
     66  CB        81.4750   64.5250   20.3570 C.3    81  LEU81       0.0297
     67  CG        81.9890   63.0940   20.5380 C.3    81  LEU81       0.0022
     68  CD1       81.7830   62.6560   21.9780 C.3    81  LEU81       0.0001
     69  CD2       81.3150   62.1400   19.5650 C.3    81  LEU81       0.0001
@<TRIPOS>BOND
     1     1     2    1
     2    30    29    1
     3    28    29    1
     4    28    27    1
     5    26    23    1
     6    26    27    1
     7     2     3    1
     8     2     5    1
     9    23    24    1
    10    23    22    1
    11    24    25    2
    12    20    19    2
    13     6     5    1
    14     6     8    1
    15     3     4    2
    16     5     7    1
    17    22    19   am
    18    19    18    1
    19    31    32    1
    20    32    35    1
    21    32    33    1
    22    17    18    1
    23    18    21    1
    24    36    33   am
    25    36    37    1
    26    33    34    2
    27    12    11    2
    28    40    37    1
    29    39    38    2
    30    61    60    1
    31    37    38    1
    32    11    10    1
    33    38    41   am
    34    65    64    2
    35    64    63    1
    36    60    59    1
    37    59    58    1
    38    41    42    1
    39     9    10    1
    40    10    13    1
    41    16    14    1
    42    42    43    1
    43    42    45    1
    44    69    67    1
    45    62    63    1
    46    62    56   am
    47    13    14    1
    48    58    55    1
    49    63    66    1
    50    43    44    2
    51    14    15    1
    52    66    67    1
    53    45    46    1
    54    45    47    1
    55    55    56    1
    56    55    54    1
    57    67    68    1
    58    56    57    2
    59    46    48    1
    60    52    51    2
    61    54    51   am
    62    51    50    1
    63    49    50    1
    64    50    53    1
