@<TRIPOS>MOLECULE
tmp/1lshA03.pdb
 82 74 0 0 0
SMALL
GASTEIGER

@<TRIPOS>ATOM
      1  N         39.7540   44.7750    3.8520 N.3   710  VAL710     -0.1245
      2  CA        40.3850   45.3900    5.0260 C.3   710  VAL710      0.1561
      3  C         40.0250   46.8610    5.1760 C.2   710  VAL710      0.2260
      4  O         39.7060   47.3420    6.2660 O.2   710  VAL710     -0.2867
      5  CB        41.9140   45.2360    4.9530 C.3   710  VAL710      0.0252
      6  CG1       42.5880   46.0330    6.0610 C.3   710  VAL710      0.0019
      7  CG2       42.2660   43.7560    5.0430 C.3   710  VAL710      0.0019
      8  N         36.6010   46.7730    6.2810 N.3   713  LYS713     -0.1231
      9  CA        36.6450   46.3800    7.6870 C.3   713  LYS713      0.1693
     10  C         37.0500   47.6210    8.4600 C.2   713  LYS713      0.2591
     11  O         36.3530   48.0320    9.3690 O.2   713  LYS713     -0.2718
     12  CB        37.7240   45.2960    7.8630 C.3   713  LYS713      0.0285
     13  CG        37.7540   44.5570    9.2130 C.3   713  LYS713      0.0035
     14  CD        38.9460   43.5750    9.3720 C.3   713  LYS713      0.0206
     15  CE        38.6570   42.5140   10.4800 C.3   713  LYS713      0.1093
     16  NZ        39.8550   41.7540   10.9980 N.3   713  LYS713     -0.1314
     17  N         38.1250   48.2760    7.9840 N.am  714  LEU714     -0.1980
     18  CA        38.6600   49.4960    8.6040 C.3   714  LEU714      0.1596
     19  C         37.6820   50.6520    8.5750 C.2   714  LEU714      0.2287
     20  O         37.5820   51.3650    9.5790 O.2   714  LEU714     -0.2864
     21  CB        40.0200   49.9060    8.0230 C.3   714  LEU714      0.0297
     22  CG        41.3270   49.2810    8.5500 C.3   714  LEU714      0.0022
     23  CD1       42.5420   49.7900    7.7680 C.3   714  LEU714      0.0001
     24  CD2       41.5140   49.6170   10.0270 C.3   714  LEU714      0.0001
     25  N         37.1330   48.6060   13.7770 N.3   718  MET718     -0.1245
     26  CA        37.6240   47.3090   14.3080 C.3   718  MET718      0.1570
     27  C         37.9950   47.5260   15.7730 C.2   718  MET718      0.2261
     28  O         38.4350   48.6130   16.1390 O.2   718  MET718     -0.2867
     29  CB        38.9600   46.9130   13.6680 C.3   718  MET718      0.0387
     30  CG        38.9810   46.4230   12.2490 C.3   718  MET718      0.0595
     31  SD        40.7590   46.1590   11.7690 S.3   718  MET718     -0.1393
     32  CE        41.0280   44.4630   12.3900 C.3   718  MET718      0.0692
     33  N         40.0150   50.8570   16.0020 N.3   759  LEU759     -0.1245
     34  CA        40.5510   51.6050   14.8530 C.3   759  LEU759      0.1561
     35  C         39.4670   51.8820   13.8320 C.2   759  LEU759      0.2260
     36  O         38.6950   50.9770   13.5110 O.2   759  LEU759     -0.2867
     37  CB        41.6070   50.7790   14.1140 C.3   759  LEU759      0.0270
     38  CG        42.7310   50.2560   15.0120 C.3   759  LEU759      0.0019
     39  CD1       43.3930   49.0660   14.3350 C.3   759  LEU759      0.0001
     40  CD2       43.7450   51.3480   15.3050 C.3   759  LEU759      0.0001
     41  N         43.0590   57.6900   10.1830 N.3   782  LEU782     -0.1245
     42  CA        42.8300   56.5440   11.0980 C.3   782  LEU782      0.1561
     43  C         42.5270   56.9680   12.5400 C.2   782  LEU782      0.2260
     44  O         43.3980   57.5670   13.1560 O.2   782  LEU782     -0.2867
     45  CB        44.0530   55.6110   11.0730 C.3   782  LEU782      0.0270
     46  CG        44.1620   54.3700   11.9640 C.3   782  LEU782      0.0019
     47  CD1       43.2590   53.2440   11.4970 C.3   782  LEU782      0.0001
     48  CD2       45.5980   53.8800   11.9310 C.3   782  LEU782      0.0001
     49  N         42.0220   56.1890   16.3390 N.3   784  VAL784     -0.1245
     50  CA        42.5050   55.0970   17.2000 C.3   784  VAL784      0.1561
     51  C         42.2540   55.3480   18.7010 C.2   784  VAL784      0.2260
     52  O         42.4600   56.4390   19.2110 O.2   784  VAL784     -0.2867
     53  CB        44.0440   54.9740   17.0950 C.3   784  VAL784      0.0252
     54  CG1       44.5770   53.9350   18.0860 C.3   784  VAL784      0.0019
     55  CG2       44.4500   54.5760   15.6970 C.3   784  VAL784      0.0019
     56  N         45.5320   59.4930   13.4230 N.3   825  ILE825     -0.1245
     57  CA        46.7040   59.4530   12.5890 C.3   825  ILE825      0.1561
     58  C         46.2330   59.6470   11.1570 C.2   825  ILE825      0.2260
     59  O         45.2280   59.0490   10.7420 O.2   825  ILE825     -0.2867
     60  CB        47.4260   58.1310   12.7580 C.3   825  ILE825      0.0252
     61  CG1       47.8330   57.9950   14.2280 C.3   825  ILE825      0.0019
     62  CG2       48.5990   58.0590   11.8050 C.3   825  ILE825      0.0019
     63  CD1       48.3150   56.6450   14.6160 C.3   825  ILE825      0.0001
     64  N         47.8610   60.0650    7.4010 N.3   827  MET827     -0.1245
     65  CA        49.0130   59.7520    6.5710 C.3   827  MET827      0.1570
     66  C         48.7060   59.9300    5.0670 C.2   827  MET827      0.2261
     67  O         47.5480   59.9770    4.6100 O.2   827  MET827     -0.2867
     68  CB        49.4470   58.3050    6.8360 C.3   827  MET827      0.0387
     69  CG        50.7050   57.8590    6.0540 C.3   827  MET827      0.0595
     70  SD        50.8820   56.0520    5.7610 S.3   827  MET827     -0.1393
     71  CE        50.7450   55.3580    7.4560 C.3   827  MET827      0.0692
     72  N         53.0980   62.8300    7.5030 N.3   834  PHE834     -0.1241
     73  CA        52.5360   62.0260    8.5760 C.3   834  PHE834      0.1605
     74  C         52.0060   62.9680    9.6640 C.2   834  PHE834      0.2264
     75  O         52.6170   64.0110    9.9290 O.2   834  PHE834     -0.2867
     76  CB        53.6260   61.1010    9.1220 C.3   834  PHE834      0.0534
     77  CG        53.1910   60.2550   10.2790 C.ar  834  PHE834     -0.0203
     78  CD1       52.2000   59.2910   10.1250 C.ar  834  PHE834     -0.0042
     79  CD2       53.7750   60.4250   11.5300 C.ar  834  PHE834     -0.0042
     80  CE1       51.7970   58.5100   11.2030 C.ar  834  PHE834     -0.0003
     81  CE2       53.3790   59.6490   12.6140 C.ar  834  PHE834     -0.0003
     82  CZ        52.3880   58.6900   12.4520 C.ar  834  PHE834     -0.0000
@<TRIPOS>BOND
     1     1     2    1
     2    67    66    2
     3     5     2    1
     4     5     7    1
     5     5     6    1
     6     2     3    1
     7    66    65    1
     8     3     4    2
     9    70    69    1
    10    70    71    1
    11    69    68    1
    12     8     9    1
    13    65    68    1
    14    65    64    1
    15    72    73    1
    16     9    12    1
    17     9    10    1
    18    23    22    1
    19    12    13    1
    20    17    10   am
    21    17    18    1
    22    21    22    1
    23    21    18    1
    24    10    11    2
    25    22    24    1
    26    19    18    1
    27    19    20    2
    28    73    76    1
    29    73    74    1
    30    76    77    1
    31    13    14    1
    32    14    15    1
    33    74    75    2
    34    78    77   ar
    35    78    80   ar
    36    41    42    1
    37    77    79   ar
    38    15    16    1
    39    59    58    2
    40    45    42    1
    41    45    46    1
    42    42    43    1
    43    58    57    1
    44    80    82   ar
    45    47    46    1
    46    79    81   ar
    47    31    30    1
    48    31    32    1
    49    62    60    1
    50    48    46    1
    51    30    29    1
    52    82    81   ar
    53    43    44    2
    54    57    60    1
    55    57    56    1
    56    60    61    1
    57    36    35    2
    58    29    26    1
    59    25    26    1
    60    35    34    1
    61    37    34    1
    62    37    38    1
    63    61    63    1
    64    26    27    1
    65    39    38    1
    66    34    33    1
    67    38    40    1
    68    55    53    1
    69    27    28    2
    70    49    50    1
    71    53    50    1
    72    53    54    1
    73    50    51    1
    74    51    52    2
