@<TRIPOS>MOLECULE
tmp/1lshA01.pdb
 166 153 0 0 0
SMALL
GASTEIGER

@<TRIPOS>ATOM
      1  N         55.6620   14.3350   72.8350 N.3    11  TYR11      -0.1241
      2  CA        56.5010   14.6340   71.6210 C.3    11  TYR11       0.1605
      3  C         56.1270   16.0420   71.1490 C.2    11  TYR11       0.2264
      4  O         54.9650   16.2970   71.0900 O.2    11  TYR11      -0.2867
      5  CB        56.1640   13.6360   70.5060 C.3    11  TYR11       0.0534
      6  CG        56.7370   13.9840   69.1110 C.ar   11  TYR11      -0.0201
      7  CD1       58.0760   13.9620   68.8980 C.ar   11  TYR11      -0.0009
      8  CD2       55.8850   14.3160   68.0380 C.ar   11  TYR11      -0.0009
      9  CE1       58.6210   14.2650   67.5980 C.ar   11  TYR11       0.0417
     10  CE2       56.3960   14.6020   66.7750 C.ar   11  TYR11       0.0417
     11  CZ        57.7770   14.5670   66.5700 C.ar   11  TYR11       0.1957
     12  OH        58.3210   14.8130   65.3320 O.3    11  TYR11      -0.2866
     13  N         57.2170   19.1760   68.3050 N.3    13  ALA13      -0.1245
     14  CA        58.1050   19.3880   67.1620 C.3    13  ALA13       0.1562
     15  C         57.6980   20.6780   66.5070 C.2    13  ALA13       0.2260
     16  O         56.5220   21.0060   66.4460 O.2    13  ALA13      -0.2867
     17  CB        57.9110   18.2420   66.2090 C.3    13  ALA13       0.0290
     18  N         55.0400   25.8180   61.3900 N.3    29  LEU29      -0.1231
     19  CA        54.0400   24.7890   61.8220 C.3    29  LEU29       0.1693
     20  C         54.5840   24.0170   63.0320 C.2    29  LEU29       0.2593
     21  O         55.7950   23.7590   63.0980 O.2    29  LEU29      -0.2718
     22  CB        53.8010   23.7990   60.6650 C.3    29  LEU29       0.0284
     23  CG        53.2070   24.5230   59.4490 C.3    29  LEU29       0.0019
     24  CD1       53.0860   23.6060   58.2570 C.3    29  LEU29       0.0001
     25  CD2       51.8250   25.0640   59.8190 C.3    29  LEU29       0.0001
     26  N         53.6890   23.4050   63.8180 N.am   30  SER30      -0.1938
     27  CA        54.1340   22.7740   65.0630 C.3    30  SER30       0.2055
     28  C         53.0830   21.7780   65.5300 C.2    30  SER30       0.2643
     29  O         51.8910   21.9110   65.2060 O.2    30  SER30      -0.2714
     30  CB        54.1630   23.8880   66.1400 C.3    30  SER30       0.2130
     31  OG        54.4760   23.4060   67.4120 O.3    30  SER30      -0.2179
     32  N         53.5300   20.7660   66.2130 N.am   31  GLY31      -0.1954
     33  CA        52.5690   19.9810   66.9260 C.3    31  GLY31       0.1869
     34  C         53.0660   19.5390   68.2580 C.2    31  GLY31       0.2309
     35  O         54.2790   19.3710   68.4830 O.2    31  GLY31      -0.2863
     36  N         52.0150   16.2450   70.8370 N.3    33  MET33      -0.1245
     37  CA        51.3780   14.9450   70.8920 C.3    33  MET33       0.1570
     38  C         51.8180   14.2010   72.1400 C.2    33  MET33       0.2261
     39  O         52.8760   14.4490   72.7130 O.2    33  MET33      -0.2867
     40  CB        51.9090   14.1210   69.7060 C.3    33  MET33       0.0387
     41  CG        51.6940   14.7730   68.3860 C.3    33  MET33       0.0595
     42  SD        52.1850   13.7630   67.0360 S.3    33  MET33      -0.1393
     43  CE        52.1780   15.1710   65.8850 C.3    33  MET33       0.0692
     44  N         47.6860   20.6490   66.9270 N.3    54  LEU54      -0.1245
     45  CA        48.4200   21.2580   65.8390 C.3    54  LEU54       0.1561
     46  C         48.4670   22.7690   66.0060 C.2    54  LEU54       0.2260
     47  O         47.4400   23.4070   66.3560 O.2    54  LEU54      -0.2867
     48  CB        47.7830   20.8390   64.5120 C.3    54  LEU54       0.0270
     49  CG        47.7150   19.3250   64.2970 C.3    54  LEU54       0.0019
     50  CD1       47.0540   19.0490   62.9390 C.3    54  LEU54       0.0001
     51  CD2       49.1240   18.6780   64.4080 C.3    54  LEU54       0.0001
     52  N         45.9520   25.5500   65.1710 N.3    69  LEU69      -0.1245
     53  CA        45.4630   25.4840   63.8070 C.3    69  LEU69       0.1561
     54  C         44.0690   24.9360   64.0060 C.2    69  LEU69       0.2260
     55  O         43.9040   23.8050   64.4590 O.2    69  LEU69      -0.2867
     56  CB        46.2620   24.5220   62.9300 C.3    69  LEU69       0.0270
     57  CG        47.4600   25.2160   62.2820 C.3    69  LEU69       0.0019
     58  CD1       48.3260   24.2170   61.5560 C.3    69  LEU69       0.0001
     59  CD2       46.9500   26.2660   61.3370 C.3    69  LEU69       0.0001
     60  N         41.0960   20.2680   59.9480 N.3    73  TYR73      -0.1241
     61  CA        42.0900   19.2700   60.3850 C.3    73  TYR73       0.1605
     62  C         41.5440   18.0170   61.0810 C.2    73  TYR73       0.2264
     63  O         42.3320   17.0780   61.3030 O.2    73  TYR73      -0.2867
     64  CB        43.1920   19.9100   61.2600 C.3    73  TYR73       0.0534
     65  CG        43.8560   21.0710   60.6080 C.ar   73  TYR73      -0.0201
     66  CD1       44.8530   20.8560   59.6650 C.ar   73  TYR73      -0.0009
     67  CD2       43.4740   22.3900   60.8960 C.ar   73  TYR73      -0.0009
     68  CE1       45.4250   21.8760   59.0200 C.ar   73  TYR73       0.0417
     69  CE2       44.0660   23.4510   60.2380 C.ar   73  TYR73       0.0417
     70  CZ        45.0590   23.1720   59.2770 C.ar   73  TYR73       0.1957
     71  OH        45.7160   24.1460   58.5520 O.3    73  TYR73      -0.2866
     72  N         42.3340   14.7450   59.3470 N.3    76  PHE76      -0.1241
     73  CA        43.7650   14.4960   59.4020 C.3    76  PHE76       0.1605
     74  C         44.1820   14.0440   60.8000 C.2    76  PHE76       0.2264
     75  O         44.9310   13.0930   60.9690 O.2    76  PHE76      -0.2867
     76  CB        44.5700   15.7290   58.9580 C.3    76  PHE76       0.0534
     77  CG        46.0270   15.4490   58.8980 C.ar   76  PHE76      -0.0203
     78  CD1       46.5230   14.5950   57.9080 C.ar   76  PHE76      -0.0042
     79  CD2       46.8700   15.9500   59.8670 C.ar   76  PHE76      -0.0042
     80  CE1       47.8320   14.2550   57.9180 C.ar   76  PHE76      -0.0003
     81  CE2       48.2100   15.6070   59.8850 C.ar   76  PHE76      -0.0003
     82  CZ        48.6900   14.7600   58.9310 C.ar   76  PHE76      -0.0000
     83  N         43.3450   10.4630   61.2730 N.3    79  GLN79      -0.1245
     84  CA        44.3520    9.6080   60.5770 C.3    79  GLN79       0.1566
     85  C         45.6440    9.5040   61.3960 C.2    79  GLN79       0.2260
     86  O         46.1980    8.4200   61.5120 O.2    79  GLN79      -0.2867
     87  CB        44.8160   10.2120   59.2730 C.3    79  GLN79       0.0367
     88  CG        43.7750   10.2290   58.2230 C.3    79  GLN79       0.0905
     89  CD        44.3330   10.9060   56.9790 C.2    79  GLN79       0.2608
     90  OE1       45.4930   10.7140   56.6100 O.2    79  GLN79      -0.2717
     91  NE2       43.5240   11.7500   56.3660 N.am   79  GLN79      -0.0878
     92  N         46.7610    8.8130   55.1450 N.3   103  THR103     -0.1218
     93  CA        47.5060    9.3680   53.9830 C.3   103  THR103      0.1862
     94  C         49.0350    9.3970   54.1390 C.2   103  THR103      0.2287
     95  O         49.5640    9.3540   55.2360 O.2   103  THR103     -0.2866
     96  CB        47.0530   10.8530   53.6740 C.3   103  THR103      0.1770
     97  OG1       47.3640   11.6960   54.8130 O.3   103  THR103     -0.2211
     98  CG2       45.5240   10.9320   53.3620 C.3   103  THR103      0.0375
     99  N         50.9030   11.7160   54.0190 N.3   105  THR105     -0.1218
    100  CA        51.2950   12.8730   54.7760 C.3   105  THR105      0.1862
    101  C         51.3260   12.4810   56.2360 C.2   105  THR105      0.2287
    102  O         52.1840   12.9050   57.0170 O.2   105  THR105     -0.2866
    103  CB        50.2960   14.0140   54.5680 C.3   105  THR105      0.1770
    104  OG1       50.4860   14.5430   53.2470 O.3   105  THR105     -0.2211
    105  CG2       50.5400   15.1370   55.5650 C.3   105  THR105      0.0375
    106  N         54.6120   12.2970   58.8010 N.3   109  ILE109     -0.1245
    107  CA        54.7800   12.7880   60.1470 C.3   109  ILE109      0.1561
    108  C         55.1540   11.6850   61.1290 C.2   109  ILE109      0.2260
    109  O         55.9730   11.9120   62.0430 O.2   109  ILE109     -0.2867
    110  CB        53.5040   13.5520   60.5660 C.3   109  ILE109      0.0252
    111  CG1       53.5800   14.9600   59.9390 C.3   109  ILE109      0.0019
    112  CG2       53.3840   13.6360   62.0800 C.3   109  ILE109      0.0019
    113  CD1       52.1520   15.5800   59.8240 C.3   109  ILE109      0.0001
    114  N         42.9430   21.4830   48.3790 N.3   281  LYS281     -0.1245
    115  CA        42.2920   20.2570   48.8920 C.3   281  LYS281      0.1561
    116  C         41.0000   20.6410   49.5400 C.2   281  LYS281      0.2260
    117  O         40.9680   21.6440   50.2340 O.2   281  LYS281     -0.2867
    118  CB        43.1500   19.5590   49.9480 C.3   281  LYS281      0.0271
    119  CG        43.1350   18.0250   49.8750 C.3   281  LYS281      0.0035
    120  CD        44.3590   17.4110   49.1050 C.3   281  LYS281      0.0206
    121  CE        44.0890   17.2610   47.5590 C.3   281  LYS281      0.1093
    122  NZ        44.7570   18.3070   46.6930 N.3   281  LYS281     -0.1314
    123  N         61.0870   16.7360   60.8780 N.3   739  ILE739     -0.1245
    124  CA        59.7880   16.4150   61.4630 C.3   739  ILE739      0.1561
    125  C         58.8430   15.6930   60.5150 C.2   739  ILE739      0.2260
    126  O         57.7430   15.3060   60.9370 O.2   739  ILE739     -0.2867
    127  CB        59.1310   17.6400   62.1260 C.3   739  ILE739      0.0252
    128  CG1       58.5950   18.6280   61.0820 C.3   739  ILE739      0.0019
    129  CG2       60.1590   18.2840   63.0360 C.3   739  ILE739      0.0019
    130  CD1       57.7800   19.8800   61.7450 C.3   739  ILE739      0.0001
    131  N         57.5120   16.8780   57.4960 N.3   741  ILE741     -0.1245
    132  CA        56.7260   17.5730   56.4840 C.3   741  ILE741      0.1561
    133  C         57.7530   18.1640   55.4940 C.2   741  ILE741      0.2260
    134  O         58.9100   18.3190   55.8260 O.2   741  ILE741     -0.2867
    135  CB        55.8400   18.6450   57.0910 C.3   741  ILE741      0.0252
    136  CG1       56.6980   19.6820   57.7930 C.3   741  ILE741      0.0019
    137  CG2       54.9070   17.9820   58.1520 C.3   741  ILE741      0.0019
    138  CD1       55.8090   21.0230   58.1480 C.3   741  ILE741      0.0001
    139  N         52.0320   21.6050   53.1720 N.3   802  THR802     -0.1203
    140  CA        51.2520   20.3690   53.1630 C.3   802  THR802      0.1994
    141  C         49.9930   20.7610   52.3950 C.2   802  THR802      0.2618
    142  O         49.7610   21.9460   52.1370 O.2   802  THR802     -0.2717
    143  CB        50.8740   19.8910   54.5970 C.3   802  THR802      0.1784
    144  OG1       50.0670   20.9010   55.2300 O.3   802  THR802     -0.2211
    145  CG2       52.1340   19.7100   55.4510 C.3   802  THR802      0.0376
    146  N         49.1380   19.7950   52.1110 N.am  803  ASP803     -0.1959
    147  CA        47.8660   20.0590   51.4190 C.3   803  ASP803      0.1840
    148  C         46.9590   21.0260   52.1760 C.2   803  ASP803      0.2622
    149  O         46.3090   21.8870   51.5870 O.2   803  ASP803     -0.2715
    150  CB        47.0940   18.7620   51.3450 C.3   803  ASP803      0.1450
    151  CG        47.6940   17.8180   50.3780 C.2   803  ASP803      0.3671
    152  OD1       48.1170   18.2960   49.3090 O.co2 803  ASP803     -0.2456
    153  OD2       47.7860   16.6220   50.7070 O.co2 803  ASP803     -0.2456
    154  N         47.0650   21.0300   53.4920 N.am  804  LEU804     -0.1963
    155  CA        46.1220   21.8260   54.2460 C.3   804  LEU804      0.1728
    156  C         46.6580   23.0020   54.9840 C.2   804  LEU804      0.2616
    157  O         45.8640   23.7080   55.5960 O.2   804  LEU804     -0.2715
    158  CB        45.3880   20.9990   55.2950 C.3   804  LEU804      0.0311
    159  CG        44.3220   19.9910   54.9130 C.3   804  LEU804      0.0022
    160  CD1       43.7570   19.4990   56.2360 C.3   804  LEU804      0.0001
    161  CD2       43.2480   20.5840   54.0340 C.3   804  LEU804      0.0001
    162  N         47.9570   23.0510   55.1860 N.am  805  ALA805     -0.1977
    163  CA        48.5060   24.1610   55.9370 C.3   805  ALA805      0.1597
    164  C         49.8420   24.5030   55.2770 C.2   805  ALA805      0.2287
    165  O         50.6070   23.5920   55.0360 O.2   805  ALA805     -0.2864
    166  CB        48.7590   23.7420   57.3430 C.3   805  ALA805      0.0319
@<TRIPOS>BOND
     1   122   121    1
     2   121   120    1
     3   114   115    1
     4   115   116    1
     5   115   118    1
     6   120   119    1
     7   152   151   ar
     8   116   117    2
     9   119   118    1
    10   151   153   ar
    11   151   150    1
    12   150   147    1
    13   147   146    1
    14   147   148    1
    15   149   148    2
    16   146   141   am
    17   142   141    2
    18   148   154   am
    19   141   140    1
    20   140   139    1
    21   140   143    1
    22   104   103    1
    23    98    96    1
    24   154   155    1
    25    96    93    1
    26    96    97    1
    27    93    94    1
    28    93    92    1
    29    99   100    1
    30   161   159    1
    31    94    95    2
    32   155   156    1
    33   155   158    1
    34   103   100    1
    35   103   105    1
    36   143   144    1
    37   143   145    1
    38   100   101    1
    39   159   158    1
    40   159   160    1
    41   156   162   am
    42   156   157    2
    43   165   164    2
    44   162   163    1
    45   164   163    1
    46   133   134    2
    47   133   132    1
    48   163   166    1
    49   101   102    2
    50    91    89   am
    51   132   135    1
    52   132   131    1
    53    90    89    2
    54    89    88    1
    55   135   136    1
    56   135   137    1
    57   136   138    1
    58    78    80   ar
    59    78    77   ar
    60    80    82   ar
    61    88    87    1
    62    24    23    1
    63    71    70    1
    64   106   107    1
    65    77    76    1
    66    77    79   ar
    67    82    81   ar
    68    76    73    1
    69    68    70   ar
    70    68    66   ar
    71    87    84    1
    72    70    69   ar
    73    72    73    1
    74    73    74    1
    75    23    25    1
    76    23    22    1
    77    66    65   ar
    78   113   111    1
    79    79    81   ar
    80   111   110    1
    81    60    61    1
    82   107   110    1
    83   107   108    1
    84    69    67   ar
    85    61    62    1
    86    61    64    1
    87   125   126    2
    88   125   124    1
    89   110   112    1
    90    84    83    1
    91    84    85    1
    92    65    67   ar
    93    65    64    1
    94    22    19    1
    95    74    75    2
    96   123   124    1
    97    62    63    2
    98   128   130    1
    99   128   127    1
   100   108   109    2
   101    59    57    1
   102    18    19    1
   103    85    86    2
   104   124   127    1
   105    58    57    1
   106    19    20    1
   107   127   129    1
   108    57    56    1
   109    56    53    1
   110    50    49    1
   111    20    21    2
   112    20    26   am
   113    53    54    1
   114    53    52    1
   115    26    27    1
   116    54    55    2
   117    49    51    1
   118    49    48    1
   119    48    45    1
   120    27    28    1
   121    27    30    1
   122    29    28    2
   123    12    11    1
   124    28    32   am
   125    45    46    1
   126    45    44    1
   127    43    42    1
   128    46    47    2
   129    30    31    1
   130    17    14    1
   131    32    33    1
   132    16    15    2
   133    15    14    1
   134    11    10   ar
   135    11     9   ar
   136    10     8   ar
   137    33    34    1
   138    42    41    1
   139    14    13    1
   140     9     7   ar
   141     8     6   ar
   142    34    35    2
   143    41    40    1
   144     7     6   ar
   145     6     5    1
   146    40    37    1
   147     5     2    1
   148    36    37    1
   149    37    38    1
   150     4     3    2
   151     3     2    1
   152     2     1    1
   153    38    39    2
