@<TRIPOS>MOLECULE
tmp/1lshB03.pdb
 99 94 0 0 0
SMALL
GASTEIGER

@<TRIPOS>ATOM
      1  N         68.2140   74.8920   19.1880 N.3    52  LEU52      -0.1245
      2  CA        69.1720   73.8050   19.3480 C.3    52  LEU52       0.1561
      3  C         69.7240   73.5180   17.9490 C.2    52  LEU52       0.2260
      4  O         68.9570   73.4190   16.9890 O.2    52  LEU52      -0.2867
      5  CB        68.5230   72.5710   19.9770 C.3    52  LEU52       0.0270
      6  CG        69.5150   71.4400   20.2810 C.3    52  LEU52       0.0019
      7  CD1       69.4710   71.0900   21.7550 C.3    52  LEU52       0.0001
      8  CD2       69.2220   70.2150   19.4230 C.3    52  LEU52       0.0001
      9  N         77.3630   70.7390   19.1100 N.3    68  ILE68      -0.1245
     10  CA        76.0150   71.0160   19.5500 C.3    68  ILE68       0.1561
     11  C         75.9660   72.3700   20.2220 C.2    68  ILE68       0.2260
     12  O         76.8080   72.6940   21.0650 O.2    68  ILE68      -0.2867
     13  CB        75.4390   69.9190   20.4570 C.3    68  ILE68       0.0252
     14  CG1       74.0320   70.3110   20.9070 C.3    68  ILE68       0.0019
     15  CG2       76.3210   69.6880   21.6600 C.3    68  ILE68       0.0019
     16  CD1       73.2500   69.1840   21.5110 C.3    68  ILE68       0.0001
     17  N         73.1380   75.1490   21.8530 N.3    70  TRP70      -0.1241
     18  CA        71.7870   75.4150   22.3160 C.3    70  TRP70       0.1605
     19  C         71.7540   76.6600   23.1920 C.2    70  TRP70       0.2264
     20  O         72.7920   77.2610   23.4770 O.2    70  TRP70      -0.2867
     21  CB        71.1470   74.1990   22.9990 C.3    70  TRP70       0.0550
     22  CG        71.7580   73.6960   24.2800 C.ar   70  TRP70       0.0003
     23  CD1       71.1500   73.6380   25.5040 C.ar   70  TRP70       0.0946
     24  CD2       73.0350   73.0640   24.4400 C.ar   70  TRP70       0.0152
     25  NE1       71.9610   72.9980   26.4090 N.ar   70  TRP70      -0.2442
     26  CE2       73.1260   72.6370   25.7830 C.ar   70  TRP70       0.0810
     27  CE3       74.1100   72.8120   23.5780 C.ar   70  TRP70       0.0012
     28  CZ2       74.2490   71.9700   26.2850 C.ar   70  TRP70       0.0191
     29  CZ3       75.2290   72.1490   24.0770 C.ar   70  TRP70       0.0001
     30  CH2       75.2880   71.7360   25.4190 C.ar   70  TRP70       0.0015
     31  N         79.0830   72.2240   22.8510 N.3    79  ALA79      -0.1245
     32  CA        79.7060   70.9640   23.1890 C.3    79  ALA79       0.1562
     33  C         79.9650   70.2270   21.8810 C.2    79  ALA79       0.2260
     34  O         79.0660   70.1540   21.0460 O.2    79  ALA79      -0.2867
     35  CB        78.8110   70.1440   24.1250 C.3    79  ALA79       0.0290
     36  N         85.9190   64.9270   23.9190 N.3    98  ILE98      -0.1231
     37  CA        84.6850   65.6160   24.2350 C.3    98  ILE98       0.1692
     38  C         85.0980   66.9430   24.8170 C.2    98  ILE98       0.2592
     39  O         85.8240   66.9940   25.8050 O.2    98  ILE98      -0.2718
     40  CB        83.8520   64.9100   25.2820 C.3    98  ILE98       0.0266
     41  CG1       83.3480   63.5870   24.7200 C.3    98  ILE98       0.0019
     42  CG2       82.7070   65.8090   25.7080 C.3    98  ILE98       0.0020
     43  CD1       82.2520   62.9610   25.5530 C.3    98  ILE98       0.0001
     44  N         84.6950   68.0020   24.1390 N.am   99  LYS99      -0.1966
     45  CA        85.0390   69.3530   24.5490 C.3    99  LYS99       0.1728
     46  C         83.7660   70.0960   24.9430 C.2    99  LYS99       0.2616
     47  O         82.6510   69.6820   24.5950 O.2    99  LYS99      -0.2715
     48  CB        85.7430   70.0530   23.3890 C.3    99  LYS99       0.0311
     49  CG        86.7050   69.1500   22.6590 C.3    99  LYS99       0.0038
     50  CD        87.5140   69.9060   21.6090 C.3    99  LYS99       0.0206
     51  CE        87.5640   69.1320   20.2960 C.3    99  LYS99       0.1093
     52  NZ        86.2310   68.9360   19.6550 N.3    99  LYS99      -0.1314
     53  N         83.8970   71.1560   25.7060 N.am  100  TRP100     -0.1974
     54  CA        82.6930   71.8850   26.0520 C.3   100  TRP100      0.1640
     55  C         83.0150   73.3390   26.3090 C.2   100  TRP100      0.2290
     56  O         84.1180   73.7000   26.7280 O.2   100  TRP100     -0.2864
     57  CB        81.9580   71.2670   27.2420 C.3   100  TRP100      0.0576
     58  CG        82.7510   71.2710   28.4630 C.ar  100  TRP100      0.0006
     59  CD1       82.8410   72.2750   29.3700 C.ar  100  TRP100      0.0946
     60  CD2       83.6610   70.2550   28.8880 C.ar  100  TRP100      0.0152
     61  NE1       83.7650   71.9600   30.3330 N.ar  100  TRP100     -0.2442
     62  CE2       84.2870   70.7240   30.0620 C.ar  100  TRP100      0.0810
     63  CE3       84.0120   68.9930   28.3910 C.ar  100  TRP100      0.0012
     64  CZ2       85.2490   69.9800   30.7470 C.ar  100  TRP100      0.0191
     65  CZ3       84.9710   68.2470   29.0780 C.ar  100  TRP100      0.0001
     66  CH2       85.5770   68.7470   30.2420 C.ar  100  TRP100      0.0015
     67  N         78.4290   75.8660   29.9030 N.3   103  LEU103     -0.1245
     68  CA        77.3380   74.9290   30.1130 C.3   103  LEU103      0.1561
     69  C         76.3870   75.5750   31.0960 C.2   103  LEU103      0.2260
     70  O         76.7800   76.4870   31.8280 O.2   103  LEU103     -0.2867
     71  CB        77.8430   73.5930   30.6560 C.3   103  LEU103      0.0270
     72  CG        78.1220   72.5320   29.5910 C.3   103  LEU103      0.0019
     73  CD1       79.3520   72.9270   28.7910 C.3   103  LEU103      0.0001
     74  CD2       78.3140   71.1800   30.2680 C.3   103  LEU103      0.0001
     75  N         74.0410   71.6040   34.0710 N.3   107  LEU107     -0.1245
     76  CA        74.8570   70.5370   33.5030 C.3   107  LEU107      0.1561
     77  C         76.2820   70.5930   34.0800 C.2   107  LEU107      0.2260
     78  O         76.9310   69.5560   34.2650 O.2   107  LEU107     -0.2867
     79  CB        74.8860   70.6330   31.9730 C.3   107  LEU107      0.0270
     80  CG        74.9810   69.2770   31.2670 C.3   107  LEU107      0.0019
     81  CD1       73.7650   68.4420   31.6450 C.3   107  LEU107      0.0001
     82  CD2       75.0530   69.4530   29.7600 C.3   107  LEU107      0.0001
     83  N         78.9780   67.5070   35.2040 N.3   111  LYS111     -0.1245
     84  CA        80.3200   67.3560   34.6800 C.3   111  LYS111      0.1561
     85  C         81.3220   67.3940   35.8350 C.2   111  LYS111      0.2260
     86  O         82.0120   66.4000   36.0940 O.2   111  LYS111     -0.2867
     87  CB        80.5710   68.4910   33.6860 C.3   111  LYS111      0.0271
     88  CG        81.8190   68.3680   32.8330 C.3   111  LYS111      0.0035
     89  CD        82.4830   69.7260   32.7160 C.3   111  LYS111      0.0206
     90  CE        82.9040   70.2060   34.0900 C.3   111  LYS111      0.1093
     91  NZ        83.0770   71.6770   34.1320 N.3   111  LYS111     -0.1314
     92  N         83.7410   64.3510   36.8970 N.3   115  LEU115     -0.1245
     93  CA        85.1570   64.5880   36.6360 C.3   115  LEU115      0.1561
     94  C         85.9430   64.7110   37.9400 C.2   115  LEU115      0.2260
     95  O         87.1770   64.5170   37.9800 O.2   115  LEU115     -0.2867
     96  CB        85.3460   65.8480   35.7950 C.3   115  LEU115      0.0270
     97  CG        85.6290   65.5550   34.3240 C.3   115  LEU115      0.0019
     98  CD1       84.4100   64.9460   33.6700 C.3   115  LEU115      0.0001
     99  CD2       86.0420   66.8170   33.5970 C.3   115  LEU115      0.0001
@<TRIPOS>BOND
     1     4     3    2
     2     3     2    1
     3     9    10    1
     4     1     2    1
     5     2     5    1
     6     8     6    1
     7    10    11    1
     8    10    13    1
     9    52    51    1
    10     5     6    1
    11    11    12    2
    12     6     7    1
    13    51    50    1
    14    13    14    1
    15    13    15    1
    16    14    16    1
    17    34    33    2
    18    50    49    1
    19    17    18    1
    20    33    32    1
    21    18    21    1
    22    18    19    1
    23    49    48    1
    24    31    32    1
    25    21    22    1
    26    32    35    1
    27    19    20    2
    28    48    45    1
    29    27    29   ar
    30    27    24   ar
    31    36    37    1
    32    29    30   ar
    33    44    45    1
    34    44    38   am
    35    37    38    1
    36    37    40    1
    37    22    24   ar
    38    22    23   ar
    39    24    26   ar
    40    45    46    1
    41    47    46    2
    42    41    40    1
    43    41    43    1
    44    38    39    2
    45    46    53   am
    46    40    42    1
    47    30    28   ar
    48    23    25   ar
    49    53    54    1
    50    26    28   ar
    51    26    25   ar
    52    54    55    1
    53    54    57    1
    54    55    56    2
    55    57    58    1
    56    63    60   ar
    57    63    65   ar
    58    58    60   ar
    59    58    59   ar
    60    73    72    1
    61    60    62   ar
    62    65    66   ar
    63    59    61   ar
    64    72    74    1
    65    72    71    1
    66    82    80    1
    67    67    68    1
    68    62    61   ar
    69    62    64   ar
    70    68    71    1
    71    68    69    1
    72    66    64   ar
    73    69    70    2
    74    80    81    1
    75    80    79    1
    76    79    76    1
    77    89    88    1
    78    89    90    1
    79    88    87    1
    80    76    75    1
    81    76    77    1
    82    99    97    1
    83    98    97    1
    84    87    84    1
    85    77    78    2
    86    90    91    1
    87    97    96    1
    88    84    83    1
    89    84    85    1
    90    96    93    1
    91    85    86    2
    92    93    92    1
    93    93    94    1
    94    94    95    2
