@<TRIPOS>MOLECULE
tmp/1lshB00.pdb
 139 130 0 0 0
SMALL
GASTEIGER

@<TRIPOS>ATOM
      1  N         84.9950   59.8890   38.0030 N.3   119  ALA119     -0.1245
      2  CA        86.2230   59.4650   37.3580 C.3   119  ALA119      0.1562
      3  C         87.2020   58.7230   38.2610 C.2   119  ALA119      0.2260
      4  O         87.4350   57.5340   38.0210 O.2   119  ALA119     -0.2867
      5  CB        86.9070   60.6550   36.7000 C.3   119  ALA119      0.0290
      6  N         85.7790   55.3070   39.1100 N.3   122  ILE122     -0.1231
      7  CA        85.7990   54.3460   38.0120 C.3   122  ILE122      0.1692
      8  C         87.2390   53.9000   37.7600 C.2   122  ILE122      0.2591
      9  O         87.4980   52.7200   37.5490 O.2   122  ILE122     -0.2718
     10  CB        85.2930   54.9630   36.6950 C.3   122  ILE122      0.0266
     11  CG1       83.9100   55.5910   36.8880 C.3   122  ILE122      0.0019
     12  CG2       85.2680   53.9000   35.6060 C.3   122  ILE122      0.0020
     13  CD1       83.7150   56.8920   36.1060 C.3   122  ILE122      0.0001
     14  N         88.1560   54.8630   37.7790 N.am  123  ALA123     -0.1980
     15  CA        89.5790   54.6400   37.5800 C.3   123  ALA123      0.1597
     16  C         90.1710   53.6130   38.5660 C.2   123  ALA123      0.2287
     17  O         91.0290   52.7880   38.2000 O.2   123  ALA123     -0.2864
     18  CB        90.3230   55.9690   37.6810 C.3   123  ALA123      0.0319
     19  N         88.7300   50.0510   38.2620 N.3   126  LEU126     -0.1245
     20  CA        89.3490   49.5020   37.0540 C.3   126  LEU126      0.1561
     21  C         90.8550   49.4590   37.2640 C.2   126  LEU126      0.2260
     22  O         91.6010   49.0950   36.3580 O.2   126  LEU126     -0.2867
     23  CB        89.0950   50.3820   35.8250 C.3   126  LEU126      0.0270
     24  CG        87.6980   50.7800   35.3460 C.3   126  LEU126      0.0019
     25  CD1       87.8460   51.5930   34.0750 C.3   126  LEU126      0.0001
     26  CD2       86.8200   49.5680   35.1030 C.3   126  LEU126      0.0001
     27  N         93.5010   51.7230   37.3600 N.3   128  MET128     -0.1245
     28  CA        94.2850   52.3570   36.2950 C.3   128  MET128      0.1570
     29  C         95.4620   53.1150   36.9030 C.2   128  MET128      0.2261
     30  O         95.3840   53.5080   38.0460 O.2   128  MET128     -0.2867
     31  CB        93.3980   53.3510   35.5390 C.3   128  MET128      0.0387
     32  CG        92.1490   52.7620   34.9840 C.3   128  MET128      0.0595
     33  SD        91.4110   53.8930   33.8240 S.3   128  MET128     -0.1393
     34  CE        92.5960   53.9120   32.5300 C.3   128  MET128      0.0692
     35  N         90.2480   60.6050   25.1100 N.3   142  VAL142     -0.1245
     36  CA        90.4570   59.1990   25.2890 C.3   142  VAL142      0.1561
     37  C         91.2080   58.7040   24.0510 C.2   142  VAL142      0.2260
     38  O         90.7920   58.9170   22.9030 O.2   142  VAL142     -0.2867
     39  CB        89.1660   58.4110   25.5180 C.3   142  VAL142      0.0252
     40  CG1       89.5280   56.9460   25.7320 C.3   142  VAL142      0.0019
     41  CG2       88.4200   58.9170   26.7590 C.3   142  VAL142      0.0019
     42  N         95.6540   46.4760   24.1250 N.3   152  MET152     -0.1245
     43  CA        95.4620   47.9100   23.9380 C.3   152  MET152      0.1570
     44  C         95.9500   48.7480   25.1090 C.2   152  MET152      0.2261
     45  O         96.0630   48.2480   26.2230 O.2   152  MET152     -0.2867
     46  CB        93.9910   48.2210   23.5930 C.3   152  MET152      0.0387
     47  CG        93.0310   48.5120   24.7330 C.3   152  MET152      0.0595
     48  SD        91.4540   49.2060   24.0620 S.3   152  MET152     -0.1393
     49  CE        90.2670   49.1030   25.5160 C.3   152  MET152      0.0692
     50  N         95.4230   52.4830   26.9450 N.3   154  ILE154     -0.1245
     51  CA        94.4410   53.5450   26.9630 C.3   154  ILE154      0.1561
     52  C         94.8970   54.6550   27.8760 C.2   154  ILE154      0.2260
     53  O         95.3290   54.4020   29.0110 O.2   154  ILE154     -0.2867
     54  CB        93.0660   53.0210   27.4200 C.3   154  ILE154      0.0252
     55  CG1       92.0540   54.1640   27.4320 C.3   154  ILE154      0.0019
     56  CG2       93.1890   52.3110   28.7520 C.3   154  ILE154      0.0019
     57  CD1       90.7050   53.8180   28.0540 C.3   154  ILE154      0.0001
     58  N         93.3660   58.4210   29.3130 N.3   156  VAL156     -0.1245
     59  CA        92.2000   59.2450   29.5450 C.3   156  VAL156      0.1561
     60  C         92.6440   60.5520   30.1740 C.2   156  VAL156      0.2260
     61  O         93.1380   60.5590   31.3210 O.2   156  VAL156     -0.2867
     62  CB        91.2410   58.5540   30.5010 C.3   156  VAL156      0.0252
     63  CG1       90.0560   59.4580   30.8310 C.3   156  VAL156      0.0019
     64  CG2       90.7490   57.2660   29.8710 C.3   156  VAL156      0.0019
     65  N         91.7850   64.0530   31.4880 N.3   158  LEU158     -0.1245
     66  CA        90.8070   64.9250   32.1270 C.3   158  LEU158      0.1561
     67  C         91.5120   66.2580   32.3930 C.2   158  LEU158      0.2260
     68  O         92.7420   66.3910   32.2790 O.2   158  LEU158     -0.2867
     69  CB        90.3010   64.3240   33.4410 C.3   158  LEU158      0.0270
     70  CG        89.7710   62.8850   33.3590 C.3   158  LEU158      0.0019
     71  CD1       88.7000   62.6800   34.4240 C.3   158  LEU158      0.0001
     72  CD2       89.2030   62.5620   31.9750 C.3   158  LEU158      0.0001
     73  N         94.6230   59.5350   33.4450 N.3   163  TYR163     -0.1241
     74  CA        94.5500   58.1510   33.8650 C.3   163  TYR163      0.1605
     75  C         95.0350   57.3260   32.6880 C.2   163  TYR163      0.2264
     76  O         94.8330   57.7290   31.5380 O.2   163  TYR163     -0.2867
     77  CB        93.1300   57.7360   34.2080 C.3   163  TYR163      0.0534
     78  CG        92.5440   58.4510   35.3850 C.ar  163  TYR163     -0.0201
     79  CD1       93.2780   58.6560   36.5340 C.ar  163  TYR163     -0.0009
     80  CD2       91.2280   58.9180   35.3450 C.ar  163  TYR163     -0.0009
     81  CE1       92.7070   59.3100   37.6300 C.ar  163  TYR163      0.0417
     82  CE2       90.6490   59.5660   36.4230 C.ar  163  TYR163      0.0417
     83  CZ        91.3910   59.7530   37.5650 C.ar  163  TYR163      0.1957
     84  OH        90.8130   60.3680   38.6450 O.3   163  TYR163     -0.2866
     85  N         96.4680   53.0380   31.2430 N.3   165  GLN165     -0.1245
     86  CA        96.6640   51.6170   31.4980 C.3   165  GLN165      0.1566
     87  C         97.2190   50.9820   30.2300 C.2   165  GLN165      0.2260
     88  O         96.6980   51.2260   29.1390 O.2   165  GLN165     -0.2867
     89  CB        95.3400   50.9520   31.8850 C.3   165  GLN165      0.0367
     90  CG        95.5120   49.4710   32.2530 C.3   165  GLN165      0.0905
     91  CD        96.5180   49.2860   33.3810 C.2   165  GLN165      0.2608
     92  OE1       97.7370   49.2970   33.1670 O.2   165  GLN165     -0.2717
     93  NE2       96.0080   49.2390   34.6080 N.am  165  GLN165     -0.0878
     94  N         98.7260   47.3960   28.1280 N.3   167  GLY167     -0.1210
     95  CA        98.7400   45.9450   28.0710 C.3   167  GLY167      0.1956
     96  C         97.4340   45.2750   28.4760 C.2   167  GLY167      0.2612
     97  O         97.4370   44.2720   29.1910 O.2   167  GLY167     -0.2717
     98  N         96.3230   45.9080   28.1170 N.am  168  ILE168     -0.1965
     99  CA        95.0240   45.3780   28.4290 C.3   168  ILE168      0.1727
    100  C         94.7040   44.3650   27.3610 C.2   168  ILE168      0.2616
    101  O         94.6550   44.7220   26.2120 O.2   168  ILE168     -0.2715
    102  CB        93.9040   46.4260   28.3590 C.3   168  ILE168      0.0290
    103  CG1       94.0820   47.5140   29.4200 C.3   168  ILE168      0.0022
    104  CG2       92.5620   45.7270   28.5110 C.3   168  ILE168      0.0023
    105  CD1       93.0150   48.5300   29.3650 C.3   168  ILE168      0.0001
    106  N         94.4780   43.1280   27.7410 N.am  169  LEU169     -0.1963
    107  CA        94.2020   42.1060   26.7690 C.3   169  LEU169      0.1728
    108  C         92.7030   42.0590   26.4880 C.2   169  LEU169      0.2616
    109  O         91.9050   42.0660   27.3990 O.2   169  LEU169     -0.2715
    110  CB        94.6620   40.7520   27.3030 C.3   169  LEU169      0.0311
    111  CG        96.1350   40.3580   27.2500 C.3   169  LEU169      0.0022
    112  CD1       96.3680   39.2210   28.2070 C.3   169  LEU169      0.0001
    113  CD2       96.4750   39.8920   25.8470 C.3   169  LEU169      0.0001
    114  N         92.2850   42.0400   25.2380 N.am  170  LEU170     -0.1964
    115  CA        90.8710   42.0260   25.0150 C.3   170  LEU170      0.1713
    116  C         90.4080   40.6270   24.6510 C.2   170  LEU170      0.2458
    117  O         91.1430   39.8340   24.0900 O.2   170  LEU170     -0.2730
    118  CB        90.5230   42.9390   23.8360 C.3   170  LEU170      0.0310
    119  CG        91.0550   44.3640   23.8320 C.3   170  LEU170      0.0022
    120  CD1       90.8530   44.9320   22.4400 C.3   170  LEU170      0.0001
    121  CD2       90.3730   45.1780   24.9060 C.3   170  LEU170      0.0001
    122  N         89.0980   40.4320   24.6790 N.am  171  PRO171     -0.2716
    123  CA        88.4980   39.1320   24.3510 C.3   171  PRO171      0.1536
    124  C         88.2440   38.9740   22.8340 C.2   171  PRO171      0.2598
    125  O         87.7750   37.9390   22.3580 O.2   171  PRO171     -0.2715
    126  CB        87.1870   39.1620   25.1640 C.3   171  PRO171      0.0310
    127  CG        87.4310   40.2520   26.2130 C.3   171  PRO171      0.0237
    128  CD        88.1560   41.2860   25.4230 C.3   171  PRO171      0.0939
    129  N         88.5020   40.0410   22.0900 N.am  172  PHE172     -0.1974
    130  CA        88.3540   40.1060   20.6520 C.3   172  PHE172      0.1639
    131  C         89.4750   40.9620   20.0660 C.2   172  PHE172      0.2290
    132  O         90.3010   41.5460   20.7890 O.2   172  PHE172     -0.2864
    133  CB        87.0040   40.7330   20.2610 C.3   172  PHE172      0.0560
    134  CG        86.6150   41.9000   21.1130 C.ar  172  PHE172     -0.0200
    135  CD1       87.1340   43.1750   20.8550 C.ar  172  PHE172     -0.0042
    136  CD2       85.7330   41.7240   22.1930 C.ar  172  PHE172     -0.0042
    137  CE1       86.7940   44.2530   21.6440 C.ar  172  PHE172     -0.0003
    138  CE2       85.3810   42.8010   22.9970 C.ar  172  PHE172     -0.0003
    139  CZ        85.9170   44.0820   22.7190 C.ar  172  PHE172     -0.0000
@<TRIPOS>BOND
     1   131   130    1
     2   131   132    2
     3   133   130    1
     4   133   134    1
     5   130   129    1
     6   135   134   ar
     7   135   137   ar
     8   134   136   ar
     9   137   139   ar
    10   129   124   am
    11   136   138   ar
    12   125   124    2
    13   120   119    1
    14   139   138   ar
    15   124   123    1
    16    38    37    2
    17    46    43    1
    18    46    47    1
    19   119   118    1
    20   119   121    1
    21   118   115    1
    22    43    42    1
    23    43    44    1
    24    37    36    1
    25    48    47    1
    26    48    49    1
    27   117   116    2
    28   123   122    1
    29   123   126    1
    30   116   122   am
    31   116   115    1
    32   122   128    1
    33   115   114    1
    34    44    45    2
    35    35    36    1
    36   126   127    1
    37   114   108   am
    38    36    39    1
    39   128   127    1
    40    39    40    1
    41    39    41    1
    42   113   111    1
    43   101   100    2
    44   108   107    1
    45   108   109    2
    46   107   110    1
    47   107   106    1
    48    50    51    1
    49    51    54    1
    50    51    52    1
    51   111   110    1
    52   111   112    1
    53   100   106   am
    54   100    99    1
    55    54    55    1
    56    54    56    1
    57    55    57    1
    58    52    53    2
    59    95    94    1
    60    95    96    1
    61    98    99    1
    62    98    96   am
    63   102    99    1
    64   102   104    1
    65   102   103    1
    66    96    97    2
    67    88    87    2
    68    58    59    1
    69   105   103    1
    70    59    60    1
    71    59    62    1
    72    64    62    1
    73    60    61    2
    74    87    86    1
    75    62    63    1
    76    85    86    1
    77    65    66    1
    78    86    89    1
    79    76    75    2
    80    89    90    1
    81    72    70    1
    82    66    67    1
    83    66    69    1
    84    90    91    1
    85    68    67    2
    86    34    33    1
    87    75    74    1
    88    92    91    2
    89    70    69    1
    90    70    71    1
    91    91    93   am
    92    73    74    1
    93    33    32    1
    94    74    77    1
    95    25    24    1
    96    77    78    1
    97    32    31    1
    98    26    24    1
    99    80    78   ar
   100    80    82   ar
   101    24    23    1
   102    78    79   ar
   103    31    28    1
   104    12    10    1
   105    23    20    1
   106    13    11    1
   107    28    29    1
   108    28    27    1
   109    22    21    2
   110    82    83   ar
   111    79    81   ar
   112    10    11    1
   113    10     7    1
   114     5     2    1
   115    29    30    2
   116    20    21    1
   117    20    19    1
   118     2     1    1
   119     2     3    1
   120     9     8    2
   121    83    81   ar
   122    83    84    1
   123    15    18    1
   124    15    14    1
   125    15    16    1
   126     8    14   am
   127     8     7    1
   128     7     6    1
   129     4     3    2
   130    17    16    2
