@<TRIPOS>MOLECULE
tmp/1lshA00.pdb
 94 82 0 0 0
SMALL
GASTEIGER

@<TRIPOS>ATOM
      1  N         37.1330   48.6060   13.7770 N.3   718  MET718     -0.1245
      2  CA        37.6240   47.3090   14.3080 C.3   718  MET718      0.1570
      3  C         37.9950   47.5260   15.7730 C.2   718  MET718      0.2261
      4  O         38.4350   48.6130   16.1390 O.2   718  MET718     -0.2867
      5  CB        38.9600   46.9130   13.6680 C.3   718  MET718      0.0387
      6  CG        38.9810   46.4230   12.2490 C.3   718  MET718      0.0595
      7  SD        40.7590   46.1590   11.7690 S.3   718  MET718     -0.1393
      8  CE        41.0280   44.4630   12.3900 C.3   718  MET718      0.0692
      9  N         39.9930   45.2690   18.4930 N.3   720  VAL720     -0.1245
     10  CA        40.7930   44.0460   18.6570 C.3   720  VAL720      0.1561
     11  C         41.2990   43.9230   20.0990 C.2   720  VAL720      0.2260
     12  O         41.6890   44.9400   20.6550 O.2   720  VAL720     -0.2867
     13  CB        42.0640   44.0880   17.7600 C.3   720  VAL720      0.0252
     14  CG1       43.0990   43.0960   18.2900 C.3   720  VAL720      0.0019
     15  CG2       41.6880   43.6960   16.3360 C.3   720  VAL720      0.0019
     16  N         42.7950   47.5330   20.7910 N.3   757  ALA757     -0.1245
     17  CA        42.8130   48.6400   19.8580 C.3   757  ALA757      0.1562
     18  C         41.4560   48.7570   19.1930 C.2   757  ALA757      0.2260
     19  O         40.8300   47.7290   18.9530 O.2   757  ALA757     -0.2867
     20  CB        43.8930   48.4240   18.8150 C.3   757  ALA757      0.0290
     21  N         40.0150   50.8570   16.0020 N.3   759  LEU759     -0.1245
     22  CA        40.5510   51.6050   14.8530 C.3   759  LEU759      0.1561
     23  C         39.4670   51.8820   13.8320 C.2   759  LEU759      0.2260
     24  O         38.6950   50.9770   13.5110 O.2   759  LEU759     -0.2867
     25  CB        41.6070   50.7790   14.1140 C.3   759  LEU759      0.0270
     26  CG        42.7310   50.2560   15.0120 C.3   759  LEU759      0.0019
     27  CD1       43.3930   49.0660   14.3350 C.3   759  LEU759      0.0001
     28  CD2       43.7450   51.3480   15.3050 C.3   759  LEU759      0.0001
     29  N         43.0590   57.6900   10.1830 N.3   782  LEU782     -0.1245
     30  CA        42.8300   56.5440   11.0980 C.3   782  LEU782      0.1561
     31  C         42.5270   56.9680   12.5400 C.2   782  LEU782      0.2260
     32  O         43.3980   57.5670   13.1560 O.2   782  LEU782     -0.2867
     33  CB        44.0530   55.6110   11.0730 C.3   782  LEU782      0.0270
     34  CG        44.1620   54.3700   11.9640 C.3   782  LEU782      0.0019
     35  CD1       43.2590   53.2440   11.4970 C.3   782  LEU782      0.0001
     36  CD2       45.5980   53.8800   11.9310 C.3   782  LEU782      0.0001
     37  N         42.0220   56.1890   16.3390 N.3   784  VAL784     -0.1245
     38  CA        42.5050   55.0970   17.2000 C.3   784  VAL784      0.1561
     39  C         42.2540   55.3480   18.7010 C.2   784  VAL784      0.2260
     40  O         42.4600   56.4390   19.2110 O.2   784  VAL784     -0.2867
     41  CB        44.0440   54.9740   17.0950 C.3   784  VAL784      0.0252
     42  CG1       44.5770   53.9350   18.0860 C.3   784  VAL784      0.0019
     43  CG2       44.4500   54.5760   15.6970 C.3   784  VAL784      0.0019
     44  N         43.5930   53.0100   21.6960 N.3   786  ALA786     -0.1245
     45  CA        44.4080   51.8380   21.9660 C.3   786  ALA786      0.1562
     46  C         45.0910   51.8710   23.3670 C.2   786  ALA786      0.2260
     47  O         45.2640   52.9430   23.9700 O.2   786  ALA786     -0.2867
     48  CB        45.4400   51.6740   20.8560 C.3   786  ALA786      0.0290
     49  N         46.5710   55.5850   24.1350 N.3   821  VAL821     -0.1245
     50  CA        46.6440   56.5300   23.0220 C.3   821  VAL821      0.1561
     51  C         45.2870   56.6020   22.3490 C.2   821  VAL821      0.2260
     52  O         44.6970   55.5390   22.0900 O.2   821  VAL821     -0.2867
     53  CB        47.7050   56.1580   21.9830 C.3   821  VAL821      0.0252
     54  CG1       47.2880   54.9950   21.1040 C.3   821  VAL821      0.0019
     55  CG2       48.0150   57.3560   21.1160 C.3   821  VAL821      0.0019
     56  N         45.5320   59.4930   13.4230 N.3   825  ILE825     -0.1245
     57  CA        46.7040   59.4530   12.5890 C.3   825  ILE825      0.1561
     58  C         46.2330   59.6470   11.1570 C.2   825  ILE825      0.2260
     59  O         45.2280   59.0490   10.7420 O.2   825  ILE825     -0.2867
     60  CB        47.4260   58.1310   12.7580 C.3   825  ILE825      0.0252
     61  CG1       47.8330   57.9950   14.2280 C.3   825  ILE825      0.0019
     62  CG2       48.5990   58.0590   11.8050 C.3   825  ILE825      0.0019
     63  CD1       48.3150   56.6450   14.6160 C.3   825  ILE825      0.0001
     64  N         53.0980   62.8300    7.5030 N.3   834  PHE834     -0.1241
     65  CA        52.5360   62.0260    8.5760 C.3   834  PHE834      0.1605
     66  C         52.0060   62.9680    9.6640 C.2   834  PHE834      0.2264
     67  O         52.6170   64.0110    9.9290 O.2   834  PHE834     -0.2867
     68  CB        53.6260   61.1010    9.1220 C.3   834  PHE834      0.0534
     69  CG        53.1910   60.2550   10.2790 C.ar  834  PHE834     -0.0203
     70  CD1       52.2000   59.2910   10.1250 C.ar  834  PHE834     -0.0042
     71  CD2       53.7750   60.4250   11.5300 C.ar  834  PHE834     -0.0042
     72  CE1       51.7970   58.5100   11.2030 C.ar  834  PHE834     -0.0003
     73  CE2       53.3790   59.6490   12.6140 C.ar  834  PHE834     -0.0003
     74  CZ        52.3880   58.6900   12.4520 C.ar  834  PHE834     -0.0000
     75  N         49.9030   63.0050   13.6530 N.3   836  ALA836     -0.1245
     76  CA        49.2110   62.4420   14.8310 C.3   836  ALA836      0.1562
     77  C         48.5850   63.4760   15.7840 C.2   836  ALA836      0.2260
     78  O         49.2410   64.3560   16.3190 O.2   836  ALA836     -0.2867
     79  CB        50.1650   61.5830   15.6110 C.3   836  ALA836      0.0290
     80  N         47.0110   63.5010   19.2370 N.3   838  LEU838     -0.1245
     81  CA        46.7680   62.7630   20.4880 C.3   838  LEU838      0.1561
     82  C         46.2620   63.6130   21.6480 C.2   838  LEU838      0.2260
     83  O         46.8400   64.6260   21.9960 O.2   838  LEU838     -0.2867
     84  CB        48.0550   62.0840   20.9500 C.3   838  LEU838      0.0270
     85  CG        48.9020   61.4540   19.8450 C.3   838  LEU838      0.0019
     86  CD1       49.9770   60.6280   20.5360 C.3   838  LEU838      0.0001
     87  CD2       48.0560   60.5920   18.8970 C.3   838  LEU838      0.0001
     88  N         52.0440   65.6180   16.3350 N.3   947  VAL947     -0.1245
     89  CA        53.3770   65.3110   15.8230 C.3   947  VAL947      0.1561
     90  C         53.2030   65.2480   14.3180 C.2   947  VAL947      0.2260
     91  O         52.3830   64.4620   13.8350 O.2   947  VAL947     -0.2867
     92  CB        53.8590   63.9010   16.2190 C.3   947  VAL947      0.0252
     93  CG1       55.3480   63.7240   15.8840 C.3   947  VAL947      0.0019
     94  CG2       53.5290   63.6100   17.6750 C.3   947  VAL947      0.0019
@<TRIPOS>BOND
     1    64    65    1
     2    65    68    1
     3    65    66    1
     4    68    69    1
     5    66    67    2
     6    70    69   ar
     7    70    72   ar
     8    29    30    1
     9    69    71   ar
    10    59    58    2
    11    33    30    1
    12    33    34    1
    13    30    31    1
    14    58    57    1
    15    72    74   ar
    16    35    34    1
    17    71    73   ar
    18     7     6    1
    19     7     8    1
    20    62    60    1
    21    36    34    1
    22     6     5    1
    23    74    73   ar
    24    31    32    2
    25    57    60    1
    26    57    56    1
    27    60    61    1
    28    24    23    2
    29    75    76    1
    30     5     2    1
    31     1     2    1
    32    23    22    1
    33    91    90    2
    34    25    22    1
    35    25    26    1
    36    61    63    1
    37     2     3    1
    38    90    89    1
    39    27    26    1
    40    76    79    1
    41    76    77    1
    42    22    21    1
    43    26    28    1
    44    43    41    1
    45     3     4    2
    46    77    78    2
    47    89    92    1
    48    89    88    1
    49    93    92    1
    50    92    94    1
    51    15    13    1
    52    37    38    1
    53    41    38    1
    54    41    42    1
    55    38    39    1
    56    13    14    1
    57    13    10    1
    58     9    10    1
    59    10    11    1
    60    39    40    2
    61    20    17    1
    62    87    85    1
    63    19    18    2
    64    18    17    1
    65    80    81    1
    66    85    86    1
    67    85    84    1
    68    17    16    1
    69    11    12    2
    70    81    84    1
    71    81    82    1
    72    48    45    1
    73    54    53    1
    74    55    53    1
    75    82    83    2
    76    44    45    1
    77    45    46    1
    78    53    50    1
    79    52    51    2
    80    51    50    1
    81    50    49    1
    82    46    47    2
