@<TRIPOS>MOLECULE
tmp/1lshB01.pdb
 87 82 0 0 0
SMALL
GASTEIGER

@<TRIPOS>ATOM
      1  N         57.5710   72.7310   19.4050 N.3    21  LEU21      -0.1245
      2  CA        58.9340   72.6520   18.9350 C.3    21  LEU21       0.1561
      3  C         58.9290   72.3260   17.4350 C.2    21  LEU21       0.2260
      4  O         58.1320   71.5080   16.9340 O.2    21  LEU21      -0.2867
      5  CB        59.5830   71.4840   19.6750 C.3    21  LEU21       0.0270
      6  CG        61.0430   71.3670   20.0750 C.3    21  LEU21       0.0019
      7  CD1       61.5010   72.5000   20.9970 C.3    21  LEU21       0.0001
      8  CD2       61.0620   70.0540   20.8410 C.3    21  LEU21       0.0001
      9  N         61.6680   71.1140   14.4520 N.3    23  THR23      -0.1218
     10  CA        63.0030   70.6030   14.1540 C.3    23  THR23       0.1862
     11  C         63.1160   70.4980   12.6540 C.2    23  THR23       0.2287
     12  O         62.1230   70.2120   11.9960 O.2    23  THR23      -0.2866
     13  CB        63.1630   69.1780   14.7200 C.3    23  THR23       0.1770
     14  OG1       62.6870   69.1520   16.0670 O.3    23  THR23      -0.2211
     15  CG2       64.6170   68.7410   14.6990 C.3    23  THR23       0.0375
     16  N         70.7550   69.2470   12.4730 N.3    39  ILE39      -0.1245
     17  CA        69.4820   69.2540   13.1670 C.3    39  ILE39       0.1561
     18  C         69.3250   70.6080   13.8540 C.2    39  ILE39       0.2260
     19  O         70.1940   71.0180   14.6170 O.2    39  ILE39      -0.2867
     20  CB        69.3940   68.1810   14.2700 C.3    39  ILE39       0.0252
     21  CG1       69.7810   66.8060   13.7210 C.3    39  ILE39       0.0019
     22  CG2       67.9930   68.1320   14.8510 C.3    39  ILE39       0.0019
     23  CD1       69.2550   65.6210   14.5490 C.3    39  ILE39       0.0001
     24  N         66.4660   73.1290   15.9270 N.3    41  ALA41      -0.1245
     25  CA        65.2030   73.0070   16.6320 C.3    41  ALA41       0.1562
     26  C         64.8310   74.3130   17.3200 C.2    41  ALA41       0.2260
     27  O         65.6370   74.8910   18.0380 O.2    41  ALA41      -0.2867
     28  CB        65.2710   71.8740   17.6390 C.3    41  ALA41       0.0290
     29  N         65.2460   80.7380   21.7920 N.3    50  TRP50      -0.1241
     30  CA        65.8270   79.4090   21.9660 C.3    50  TRP50       0.1605
     31  C         66.0450   78.7200   20.6120 C.2    50  TRP50       0.2264
     32  O         65.2010   78.8000   19.7000 O.2    50  TRP50      -0.2867
     33  CB        64.9240   78.5350   22.8380 C.3    50  TRP50       0.0550
     34  CG        65.6320   77.3330   23.3270 C.ar   50  TRP50       0.0003
     35  CD1       66.4330   77.2500   24.4220 C.ar   50  TRP50       0.0946
     36  CD2       65.6480   76.0460   22.7160 C.ar   50  TRP50       0.0152
     37  NE1       66.9600   75.9910   24.5300 N.ar   50  TRP50      -0.2442
     38  CE2       66.4930   75.2260   23.4970 C.ar   50  TRP50       0.0810
     39  CE3       65.0250   75.4980   21.5820 C.ar   50  TRP50       0.0012
     40  CZ2       66.7310   73.8870   23.1890 C.ar   50  TRP50       0.0191
     41  CZ3       65.2610   74.1670   21.2740 C.ar   50  TRP50       0.0001
     42  CH2       66.1080   73.3740   22.0790 C.ar   50  TRP50       0.0015
     43  N         68.2140   74.8920   19.1880 N.3    52  LEU52      -0.1245
     44  CA        69.1720   73.8050   19.3480 C.3    52  LEU52       0.1561
     45  C         69.7240   73.5180   17.9490 C.2    52  LEU52       0.2260
     46  O         68.9570   73.4190   16.9890 O.2    52  LEU52      -0.2867
     47  CB        68.5230   72.5710   19.9770 C.3    52  LEU52       0.0270
     48  CG        69.5150   71.4400   20.2810 C.3    52  LEU52       0.0019
     49  CD1       69.4710   71.0900   21.7550 C.3    52  LEU52       0.0001
     50  CD2       69.2220   70.2150   19.4230 C.3    52  LEU52       0.0001
     51  N         77.3630   70.7390   19.1100 N.3    68  ILE68      -0.1245
     52  CA        76.0150   71.0160   19.5500 C.3    68  ILE68       0.1561
     53  C         75.9660   72.3700   20.2220 C.2    68  ILE68       0.2260
     54  O         76.8080   72.6940   21.0650 O.2    68  ILE68      -0.2867
     55  CB        75.4390   69.9190   20.4570 C.3    68  ILE68       0.0252
     56  CG1       74.0320   70.3110   20.9070 C.3    68  ILE68       0.0019
     57  CG2       76.3210   69.6880   21.6600 C.3    68  ILE68       0.0019
     58  CD1       73.2500   69.1840   21.5110 C.3    68  ILE68       0.0001
     59  N         73.1380   75.1490   21.8530 N.3    70  TRP70      -0.1241
     60  CA        71.7870   75.4150   22.3160 C.3    70  TRP70       0.1605
     61  C         71.7540   76.6600   23.1920 C.2    70  TRP70       0.2264
     62  O         72.7920   77.2610   23.4770 O.2    70  TRP70      -0.2867
     63  CB        71.1470   74.1990   22.9990 C.3    70  TRP70       0.0550
     64  CG        71.7580   73.6960   24.2800 C.ar   70  TRP70       0.0003
     65  CD1       71.1500   73.6380   25.5040 C.ar   70  TRP70       0.0946
     66  CD2       73.0350   73.0640   24.4400 C.ar   70  TRP70       0.0152
     67  NE1       71.9610   72.9980   26.4090 N.ar   70  TRP70      -0.2442
     68  CE2       73.1260   72.6370   25.7830 C.ar   70  TRP70       0.0810
     69  CE3       74.1100   72.8120   23.5780 C.ar   70  TRP70       0.0012
     70  CZ2       74.2490   71.9700   26.2850 C.ar   70  TRP70       0.0191
     71  CZ3       75.2290   72.1490   24.0770 C.ar   70  TRP70       0.0001
     72  CH2       75.2880   71.7360   25.4190 C.ar   70  TRP70       0.0015
     73  N         75.0880   75.2810   30.9630 N.3   104  PRO104     -0.2116
     74  CA        74.1130   75.8530   31.8730 C.3   104  PRO104      0.1372
     75  C         74.5680   75.2960   33.2040 C.2   104  PRO104      0.2244
     76  O         74.8670   74.1070   33.2970 O.2   104  PRO104     -0.2868
     77  CB        72.8000   75.2190   31.4200 C.3   104  PRO104      0.0268
     78  CG        73.2390   73.9360   30.7740 C.3   104  PRO104      0.0207
     79  CD        74.4430   74.3720   30.0040 C.3   104  PRO104      0.0892
     80  N         74.0410   71.6040   34.0710 N.3   107  LEU107     -0.1245
     81  CA        74.8570   70.5370   33.5030 C.3   107  LEU107      0.1561
     82  C         76.2820   70.5930   34.0800 C.2   107  LEU107      0.2260
     83  O         76.9310   69.5560   34.2650 O.2   107  LEU107     -0.2867
     84  CB        74.8860   70.6330   31.9730 C.3   107  LEU107      0.0270
     85  CG        74.9810   69.2770   31.2670 C.3   107  LEU107      0.0019
     86  CD1       73.7650   68.4420   31.6450 C.3   107  LEU107      0.0001
     87  CD2       75.0530   69.4530   29.7600 C.3   107  LEU107      0.0001
@<TRIPOS>BOND
     1    12    11    2
     2    16    17    1
     3    11    10    1
     4    17    18    1
     5    17    20    1
     6    21    20    1
     7    21    23    1
     8    18    19    2
     9    10     9    1
    10    10    13    1
    11    20    22    1
    12    15    13    1
    13    13    14    1
    14    24    25    1
    15    25    26    1
    16    25    28    1
    17     4     3    2
    18    46    45    2
    19    26    27    2
    20     3     2    1
    21    45    44    1
    22     2     1    1
    23     2     5    1
    24    51    52    1
    25    43    44    1
    26    44    47    1
    27    50    48    1
    28    52    53    1
    29    52    55    1
    30     5     6    1
    31    32    31    2
    32    47    48    1
    33     6     8    1
    34     6     7    1
    35    53    54    2
    36    48    49    1
    37    55    56    1
    38    55    57    1
    39    31    30    1
    40    56    58    1
    41    41    39   ar
    42    41    42   ar
    43    39    36   ar
    44    29    30    1
    45    59    60    1
    46    30    33    1
    47    42    40   ar
    48    60    63    1
    49    60    61    1
    50    36    34   ar
    51    36    38   ar
    52    33    34    1
    53    63    64    1
    54    40    38   ar
    55    61    62    2
    56    34    35   ar
    57    38    37   ar
    58    69    71   ar
    59    69    66   ar
    60    71    72   ar
    61    64    66   ar
    62    64    65   ar
    63    35    37   ar
    64    66    68   ar
    65    72    70   ar
    66    65    67   ar
    67    68    70   ar
    68    68    67   ar
    69    87    85    1
    70    79    78    1
    71    79    73    1
    72    78    77    1
    73    73    74    1
    74    85    86    1
    75    85    84    1
    76    77    74    1
    77    74    75    1
    78    84    81    1
    79    75    76    2
    80    81    80    1
    81    81    82    1
    82    82    83    2
