@<TRIPOS>MOLECULE
tmp/1lshA16.pdb
 76 72 0 0 0
SMALL
GASTEIGER

@<TRIPOS>ATOM
      1  N         90.6760   34.6350   27.9800 N.3   575  ARG575     -0.1231
      2  CA        90.4970   35.8210   28.7860 C.3   575  ARG575      0.1694
      3  C         89.2630   35.7070   29.6390 C.2   575  ARG575      0.2593
      4  O         88.9440   36.6570   30.3120 O.2   575  ARG575     -0.2718
      5  CB        90.3650   37.0250   27.8700 C.3   575  ARG575      0.0321
      6  CG        91.7880   37.2260   27.1460 C.3   575  ARG575      0.0489
      7  CD        92.7510   38.1680   28.0190 C.3   575  ARG575      0.2205
      8  NE        93.6180   37.5570   29.0180 N.pl3 575  ARG575     -0.0865
      9  CZ        93.9600   38.1260   30.1700 C.cat 575  ARG575      0.5346
     10  NH1       93.4740   39.3120   30.5210 N.pl3 575  ARG575      0.1354
     11  NH2       94.8290   37.5200   30.9590 N.pl3 575  ARG575      0.1354
     12  N         88.5760   34.5770   29.6470 N.am  576  SER576     -0.1938
     13  CA        87.3210   34.5690   30.4440 C.3   576  SER576      0.2055
     14  C         87.5560   34.9000   31.9380 C.2   576  SER576      0.2643
     15  O         88.4870   34.4150   32.5930 O.2   576  SER576     -0.2714
     16  CB        86.6400   33.1980   30.4310 C.3   576  SER576      0.2130
     17  OG        85.6180   33.1410   31.5160 O.3   576  SER576     -0.2179
     18  N         86.6600   35.6580   32.5410 N.am  577  SER577     -0.1949
     19  CA        86.8530   35.7580   33.9690 C.3   577  SER577      0.1924
     20  C         85.6190   35.1430   34.6160 C.2   577  SER577      0.2314
     21  O         85.1520   35.6460   35.6430 O.2   577  SER577     -0.2863
     22  CB        86.9340   37.2400   34.3310 C.3   577  SER577      0.2116
     23  OG        85.7370   37.8320   33.8430 O.3   577  SER577     -0.2180
     24  N         82.5400   36.5510   25.6080 N.3   612  VAL612     -0.1231
     25  CA        82.5820   37.6400   26.5360 C.3   612  VAL612      0.1692
     26  C         81.7820   37.1950   27.7320 C.2   612  VAL612      0.2592
     27  O         80.8870   36.3700   27.6460 O.2   612  VAL612     -0.2718
     28  CB        82.0420   38.9820   25.9580 C.3   612  VAL612      0.0266
     29  CG1       82.9970   39.5280   24.8710 C.3   612  VAL612      0.0020
     30  CG2       80.6720   38.8010   25.3440 C.3   612  VAL612      0.0020
     31  N         82.2630   37.5610   28.8830 N.am  613  ASP613     -0.1960
     32  CA        81.5090   37.1720   30.0740 C.3   613  ASP613      0.1840
     33  C         81.7800   38.0790   31.2320 C.2   613  ASP613      0.2623
     34  O         82.6100   38.9630   31.1030 O.2   613  ASP613     -0.2715
     35  CB        81.7230   35.7180   30.4920 C.3   613  ASP613      0.1450
     36  CG        83.2110   35.3490   30.7510 C.2   613  ASP613      0.3671
     37  OD1       83.9620   36.1910   31.2300 O.co2 613  ASP613     -0.2456
     38  OD2       83.5990   34.1600   30.5860 O.co2 613  ASP613     -0.2456
     39  N         81.0420   37.8570   32.3250 N.am  614  THR614     -0.1937
     40  CA        81.1230   38.6530   33.5370 C.3   614  THR614      0.2028
     41  C         80.4570   37.8730   34.6770 C.2   614  THR614      0.2642
     42  O         79.7450   36.9490   34.4280 O.2   614  THR614     -0.2714
     43  CB        80.4260   40.0220   33.4120 C.3   614  THR614      0.1808
     44  OG1       80.7420   40.8340   34.5680 O.3   614  THR614     -0.2208
     45  CG2       78.9190   39.8730   33.3400 C.3   614  THR614      0.0379
     46  N         81.0360   37.9780   35.8500 N.am  615  PHE615     -0.1973
     47  CA        80.5920   37.2660   37.0280 C.3   615  PHE615      0.1639
     48  C         80.7420   38.1860   38.2750 C.2   615  PHE615      0.2290
     49  O         81.7620   38.8170   38.5090 O.2   615  PHE615     -0.2864
     50  CB        81.3780   35.9310   37.1880 C.3   615  PHE615      0.0560
     51  CG        80.7710   34.9770   38.2240 C.ar  615  PHE615     -0.0200
     52  CD1       79.7510   34.0900   37.8680 C.ar  615  PHE615     -0.0042
     53  CD2       81.2080   34.9780   39.5340 C.ar  615  PHE615     -0.0042
     54  CE1       79.1640   33.2020   38.8350 C.ar  615  PHE615     -0.0003
     55  CE2       80.6360   34.1020   40.5180 C.ar  615  PHE615     -0.0003
     56  CZ        79.6380   33.2310   40.1870 C.ar  615  PHE615     -0.0000
     57  N         76.8910   36.1180   33.5420 N.3   623  VAL623     -0.1245
     58  CA        76.3480   35.9010   32.2210 C.3   623  VAL623      0.1561
     59  C         77.4690   35.8000   31.1830 C.2   623  VAL623      0.2260
     60  O         78.4050   36.5780   31.2060 O.2   623  VAL623     -0.2867
     61  CB        75.4300   37.0650   31.8260 C.3   623  VAL623      0.0252
     62  CG1       76.2380   38.3200   31.5510 C.3   623  VAL623      0.0019
     63  CG2       74.5610   36.6880   30.6400 C.3   623  VAL623      0.0019
     64  N         78.5300   35.3550   26.8770 N.3   625  ALA625     -0.1245
     65  CA        77.9190   35.4050   25.5520 C.3   625  ALA625      0.1562
     66  C         78.9580   34.9450   24.5400 C.2   625  ALA625      0.2260
     67  O         80.1390   35.1110   24.7860 O.2   625  ALA625     -0.2867
     68  CB        77.4670   36.8310   25.2350 C.3   625  ALA625      0.0290
     69  N         73.5040   33.2770   24.5030 N.3   645  ILE645     -0.1245
     70  CA        73.7400   33.8780   25.7670 C.3   645  ILE645      0.1561
     71  C         73.3690   32.9230   26.8610 C.2   645  ILE645      0.2260
     72  O         72.5010   32.0690   26.7140 O.2   645  ILE645     -0.2867
     73  CB        73.2260   35.3160   25.8800 C.3   645  ILE645      0.0252
     74  CG1       73.3150   35.7700   27.3400 C.3   645  ILE645      0.0019
     75  CG2       71.8070   35.4180   25.3770 C.3   645  ILE645      0.0019
     76  CD1       73.1160   37.2710   27.5170 C.3   645  ILE645      0.0001
@<TRIPOS>BOND
     1    69    70    1
     2    66    67    2
     3    66    65    1
     4    29    28    1
     5    68    65    1
     6    30    28    1
     7    75    73    1
     8    65    64    1
     9    24    25    1
    10    70    73    1
    11    70    71    1
    12    73    74    1
    13    28    25    1
    14    25    26    1
    15    72    71    2
    16     6     5    1
    17     6     7    1
    18    74    76    1
    19    27    26    2
    20    26    31   am
    21     5     2    1
    22     1     2    1
    23     7     8    1
    24     2     3    1
    25    31    32    1
    26     8     9    2
    27     3    12   am
    28     3     4    2
    29    12    13    1
    30    32    35    1
    31    32    33    1
    32     9    10    1
    33     9    11    1
    34    16    13    1
    35    16    17    1
    36    13    14    1
    37    35    36    1
    38    38    36   ar
    39    63    61    1
    40    36    37   ar
    41    34    33    2
    42    59    60    2
    43    59    58    1
    44    33    39   am
    45    62    61    1
    46    61    58    1
    47    14    18   am
    48    14    15    2
    49    58    57    1
    50    39    40    1
    51    18    19    1
    52    45    43    1
    53    43    40    1
    54    43    44    1
    55    40    41    1
    56    23    22    1
    57    19    22    1
    58    19    20    1
    59    42    41    2
    60    20    21    2
    61    41    46   am
    62    46    47    1
    63    47    50    1
    64    47    48    1
    65    50    51    1
    66    52    51   ar
    67    52    54   ar
    68    51    53   ar
    69    48    49    2
    70    54    56   ar
    71    53    55   ar
    72    56    55   ar
