@<TRIPOS>MOLECULE
tmp/1lshA12.pdb
 199 188 0 0 0
SMALL
GASTEIGER

@<TRIPOS>ATOM
      1  N         61.1440   20.7130   40.1710 N.3   173  MET173     -0.1230
      2  CA        60.3460   21.0710   39.0220 C.3   173  MET173      0.1702
      3  C         61.0690   22.2320   38.4390 C.2   173  MET173      0.2592
      4  O         61.5990   23.0490   39.1830 O.2   173  MET173     -0.2718
      5  CB        58.9670   21.5260   39.4720 C.3   173  MET173      0.0401
      6  CG        58.2520   22.3330   38.4840 C.3   173  MET173      0.0596
      7  SD        56.5490   22.4250   39.0770 S.3   173  MET173     -0.1393
      8  CE        55.9200   21.5260   37.7430 C.3   173  MET173      0.0692
      9  N         61.2020   22.2450   37.1280 N.am  174  GLY174     -0.1957
     10  CA        61.7540   23.4110   36.4870 C.3   174  GLY174      0.1869
     11  C         63.2780   23.4610   36.3570 C.2   174  GLY174      0.2309
     12  O         63.8300   24.4930   36.0790 O.2   174  GLY174     -0.2863
     13  N         65.3000   21.1900   34.8200 N.3   176  ALA176     -0.1231
     14  CA        65.9140   20.2540   33.8790 C.3   176  ALA176      0.1694
     15  C         67.0670   20.8360   33.0240 C.2   176  ALA176      0.2592
     16  O         67.9930   20.0950   32.6190 O.2   176  ALA176     -0.2718
     17  CB        64.8370   19.6370   32.9620 C.3   176  ALA176      0.0304
     18  N         66.9570   22.1010   32.6400 N.am  177  TYR177     -0.1976
     19  CA        67.9490   22.7260   31.7500 C.3   177  TYR177      0.1639
     20  C         69.1340   23.3620   32.4990 C.2   177  TYR177      0.2290
     21  O         70.0060   23.9590   31.8930 O.2   177  TYR177     -0.2864
     22  CB        67.2870   23.8140   30.9060 C.3   177  TYR177      0.0560
     23  CG        66.1700   23.2920   30.1080 C.ar  177  TYR177     -0.0198
     24  CD1       66.3020   22.0940   29.4350 C.ar  177  TYR177     -0.0009
     25  CD2       64.9480   23.9840   30.0170 C.ar  177  TYR177     -0.0009
     26  CE1       65.2740   21.5820   28.6750 C.ar  177  TYR177      0.0417
     27  CE2       63.8710   23.4710   29.2370 C.ar  177  TYR177      0.0417
     28  CZ        64.0720   22.2690   28.5610 C.ar  177  TYR177      0.1957
     29  OH        63.1360   21.7180   27.7300 O.3   177  TYR177     -0.2866
     30  N         49.7970   25.9680   17.1210 N.3   375  THR375     -0.1203
     31  CA        51.2120   26.1760   17.1070 C.3   375  THR375      0.1994
     32  C         51.6610   27.0050   18.3040 C.2   375  THR375      0.2617
     33  O         52.8220   26.9610   18.7090 O.2   375  THR375     -0.2717
     34  CB        51.7020   26.7480   15.7610 C.3   375  THR375      0.1784
     35  OG1       53.1230   26.9150   15.8000 O.3   375  THR375     -0.2211
     36  CG2       51.0660   28.0850   15.4680 C.3   375  THR375      0.0376
     37  N         50.7840   27.7610   18.8930 N.am  376  GLN376     -0.1979
     38  CA        51.2200   28.4780   20.0700 C.3   376  GLN376      0.1601
     39  C         51.2910   27.4620   21.2070 C.2   376  GLN376      0.2287
     40  O         52.0960   27.5840   22.1000 O.2   376  GLN376     -0.2864
     41  CB        50.1690   29.5400   20.4350 C.3   376  GLN376      0.0394
     42  CG        49.8150   30.5650   19.2990 C.3   376  GLN376      0.0908
     43  CD        48.6270   31.5200   19.6340 C.2   376  GLN376      0.2608
     44  OE1       47.4920   31.0830   19.8490 O.2   376  GLN376     -0.2717
     45  NE2       48.9000   32.8210   19.6420 N.am  376  GLN376     -0.0878
     46  N         53.6570   23.7900   21.3430 N.3   379  ALA379     -0.1231
     47  CA        54.8930   24.4540   21.7200 C.3   379  ALA379      0.1694
     48  C         54.8970   24.6200   23.2280 C.2   379  ALA379      0.2592
     49  O         55.6690   24.0260   23.9170 O.2   379  ALA379     -0.2718
     50  CB        54.8440   25.8690   21.1450 C.3   379  ALA379      0.0304
     51  N         54.0650   25.5020   23.7280 N.am  380  SER380     -0.1952
     52  CA        54.0890   25.7640   25.1470 C.3   380  SER380      0.1924
     53  C         53.9630   24.4510   25.9380 C.2   380  SER380      0.2314
     54  O         54.7870   24.1230   26.7890 O.2   380  SER380     -0.2863
     55  CB        52.9160   26.6860   25.4690 C.3   380  SER380      0.2116
     56  OG        53.1400   28.0340   25.1070 O.3   380  SER380     -0.2180
     57  N         56.8660   21.3790   26.1810 N.3   383  SER383     -0.1202
     58  CA        58.0990   21.8170   26.8230 C.3   383  SER383      0.2020
     59  C         57.8560   22.2310   28.2710 C.2   383  SER383      0.2618
     60  O         58.8070   22.3280   29.0130 O.2   383  SER383     -0.2717
     61  CB        58.6290   23.0450   26.0770 C.3   383  SER383      0.2103
     62  OG        57.7840   24.1830   26.2900 O.3   383  SER383     -0.2182
     63  N         56.6560   22.6610   28.6330 N.am  384  ASN384     -0.1974
     64  CA        56.4530   22.9730   30.0320 C.3   384  ASN384      0.1688
     65  C         56.0680   21.7720   30.8820 C.2   384  ASN384      0.2292
     66  O         55.7620   21.9350   32.0580 O.2   384  ASN384     -0.2864
     67  CB        55.4040   24.0500   30.2570 C.3   384  ASN384      0.1181
     68  CG        55.4300   24.5440   31.6700 C.2   384  ASN384      0.2629
     69  OD1       56.4720   24.4490   32.3320 O.2   384  ASN384     -0.2716
     70  ND2       54.3170   25.0700   32.1550 N.am  384  ASN384     -0.0877
     71  N         54.7210   23.3380   10.0240 N.3   409  ILE409     -0.1245
     72  CA        55.2880   24.0500   11.1550 C.3   409  ILE409      0.1561
     73  C         54.8630   23.4090   12.4780 C.2   409  ILE409      0.2260
     74  O         55.6390   23.3840   13.4360 O.2   409  ILE409     -0.2867
     75  CB        54.9490   25.5520   11.1140 C.3   409  ILE409      0.0252
     76  CG1       55.6790   26.1770    9.9120 C.3   409  ILE409      0.0019
     77  CG2       55.4390   26.2410   12.3890 C.3   409  ILE409      0.0019
     78  CD1       55.5610   27.6840    9.7800 C.3   409  ILE409      0.0001
     79  N         57.3750   21.5120   15.3060 N.3   413  THR413     -0.1218
     80  CA        57.3070   21.9670   16.6790 C.3   413  THR413      0.1862
     81  C         57.0420   20.7700   17.5620 C.2   413  THR413      0.2287
     82  O         57.6090   20.6530   18.6570 O.2   413  THR413     -0.2866
     83  CB        56.1410   23.0200   16.7730 C.3   413  THR413      0.1770
     84  OG1       56.6640   24.2920   16.4070 O.3   413  THR413     -0.2211
     85  CG2       55.5430   23.0970   18.1490 C.3   413  THR413      0.0375
     86  N         60.3450   18.5890   17.6350 N.3   416  LEU416     -0.1231
     87  CA        61.3930   19.2190   18.4860 C.3   416  LEU416      0.1693
     88  C         60.9670   19.1550   19.9850 C.2   416  LEU416      0.2592
     89  O         61.7620   18.8460   20.8790 O.2   416  LEU416     -0.2718
     90  CB        61.4600   20.7060   18.1030 C.3   416  LEU416      0.0284
     91  CG        62.0520   20.9440   16.7120 C.3   416  LEU416      0.0019
     92  CD1       61.9860   22.4460   16.4690 C.3   416  LEU416      0.0001
     93  CD2       63.4850   20.3660   16.6570 C.3   416  LEU416      0.0001
     94  N         59.6720   19.3310   20.1770 N.am  417  GLY417     -0.1957
     95  CA        59.1190   19.3640   21.5530 C.3   417  GLY417      0.1869
     96  C         59.2250   18.0100   22.2050 C.2   417  GLY417      0.2309
     97  O         59.4350   17.8980   23.4050 O.2   417  GLY417     -0.2863
     98  N         62.6190   17.7670   23.4040 N.3   420  SER420     -0.1217
     99  CA        62.8370   18.4670   24.6180 C.3   420  SER420      0.1889
    100  C         62.2450   17.6330   25.7930 C.2   420  SER420      0.2288
    101  O         62.7290   17.6740   26.9270 O.2   420  SER420     -0.2866
    102  CB        62.2000   19.8500   24.5150 C.3   420  SER420      0.2089
    103  OG        62.7560   20.5400   23.4250 O.3   420  SER420     -0.2183
    104  N         64.1230   16.3860   29.2540 N.3   424  ARG424     -0.1245
    105  CA        63.7170   16.7300   30.6370 C.3   424  ARG424      0.1563
    106  C         63.4400   15.4880   31.4130 C.2   424  ARG424      0.2260
    107  O         63.8750   15.3500   32.5320 O.2   424  ARG424     -0.2867
    108  CB        62.4630   17.5720   30.6900 C.3   424  ARG424      0.0307
    109  CG        62.6760   18.8620   30.0450 C.3   424  ARG424      0.0489
    110  CD        61.3420   19.1970   29.3540 C.3   424  ARG424      0.2205
    111  NE        60.4230   19.5170   30.4290 N.pl3 424  ARG424     -0.0865
    112  CZ        60.6580   20.5380   31.2360 C.cat 424  ARG424      0.5346
    113  NH1       61.7220   21.2820   30.9270 N.pl3 424  ARG424      0.1354
    114  NH2       59.9190   20.7580   32.3470 N.pl3 424  ARG424      0.1354
    115  N         66.2070   27.9100   23.0300 N.3   689  VAL689     -0.1231
    116  CA        65.9270   28.5510   24.3120 C.3   689  VAL689      0.1692
    117  C         66.2720   27.4910   25.3350 C.2   689  VAL689      0.2592
    118  O         65.8110   26.3660   25.1850 O.2   689  VAL689     -0.2718
    119  CB        64.4080   28.9230   24.3760 C.3   689  VAL689      0.0266
    120  CG1       63.9830   29.3420   25.7910 C.3   689  VAL689      0.0020
    121  CG2       64.1630   30.0510   23.3510 C.3   689  VAL689      0.0020
    122  N         67.1030   27.8450   26.3060 N.am  690  HIS690     -0.1976
    123  CA        67.6950   26.8930   27.2310 C.3   690  HIS690      0.1656
    124  C         68.3650   25.7100   26.5510 C.2   690  HIS690      0.2291
    125  O         68.3020   24.5980   27.0680 O.2   690  HIS690     -0.2864
    126  CB        66.6420   26.3340   28.1790 C.3   690  HIS690      0.0771
    127  CG        65.8480   27.3900   28.8590 C.ar  690  HIS690      0.0820
    128  ND1       66.3580   28.6440   29.1130 N.ar  690  HIS690     -0.2267
    129  CD2       64.5680   27.4060   29.2910 C.ar  690  HIS690      0.1154
    130  CE1       65.4230   29.3910   29.6680 C.ar  690  HIS690      0.1986
    131  NE2       64.3260   28.6630   29.7870 N.ar  690  HIS690     -0.2212
    132  N         67.5530   24.1710   23.8650 N.3   692  GLN692     -0.1231
    133  CA        66.5450   23.4120   23.1080 C.3   692  GLN692      0.1698
    134  C         66.0250   24.1560   21.9320 C.2   692  GLN692      0.2592
    135  O         65.6380   25.3490   21.9840 O.2   692  GLN692     -0.2718
    136  CB        65.3620   23.0650   24.0030 C.3   692  GLN692      0.0381
    137  CG        65.7730   22.1980   25.1780 C.3   692  GLN692      0.0905
    138  CD        66.2080   20.7680   24.7270 C.2   692  GLN692      0.2608
    139  OE1       65.5070   20.0910   23.9780 O.2   692  GLN692     -0.2717
    140  NE2       67.3510   20.3220   25.2390 N.am  692  GLN692     -0.0878
    141  N         66.1810   23.5080   20.7850 N.am  693  GLU693     -0.1966
    142  CA        65.7070   24.1790   19.5530 C.3   693  GLU693      0.1733
    143  C         64.2000   24.1610   19.4640 C.2   693  GLU693      0.2616
    144  O         63.5670   23.1260   19.6620 O.2   693  GLU693     -0.2715
    145  CB        66.3050   23.5290   18.3050 C.3   693  GLU693      0.0429
    146  CG        65.8500   24.0780   17.0030 C.3   693  GLU693      0.1163
    147  CD        66.9500   23.8360   15.9160 C.2   693  GLU693      0.3649
    148  OE1       67.9690   23.1130   16.1870 O.co2 693  GLU693     -0.2457
    149  OE2       66.7330   24.3020   14.7810 O.co2 693  GLU693     -0.2457
    150  N         63.6570   25.3840   19.3380 N.am  694  VAL694     -0.1963
    151  CA        62.2280   25.5560   19.4610 C.3   694  VAL694      0.1727
    152  C         61.6110   25.9150   18.1050 C.2   694  VAL694      0.2616
    153  O         60.4310   25.6800   17.9150 O.2   694  VAL694     -0.2715
    154  CB        61.8050   26.5790   20.5280 C.3   694  VAL694      0.0290
    155  CG1       62.4050   26.2300   21.9030 C.3   694  VAL694      0.0023
    156  CG2       62.1760   27.9630   20.0820 C.3   694  VAL694      0.0023
    157  N         62.4100   26.4270   17.1560 N.am  695  VAL695     -0.1977
    158  CA        61.8590   26.7050   15.8400 C.3   695  VAL695      0.1596
    159  C         63.0230   26.8500   14.8640 C.2   695  VAL695      0.2287
    160  O         64.0960   27.2700   15.2940 O.2   695  VAL695     -0.2864
    161  CB        61.0330   28.0370   15.8400 C.3   695  VAL695      0.0276
    162  CG1       61.9220   29.2700   15.9630 C.3   695  VAL695      0.0022
    163  CG2       60.1940   28.1510   14.5720 C.3   695  VAL695      0.0022
    164  N         53.2630   31.6360   32.4000 N.3   727  VAL727     -0.1231
    165  CA        54.2010   31.4080   33.5100 C.3   727  VAL727      0.1692
    166  C         55.5740   31.4980   32.8590 C.2   727  VAL727      0.2592
    167  O         55.8560   30.7360   31.9580 O.2   727  VAL727     -0.2718
    168  CB        54.0110   30.0250   34.1560 C.3   727  VAL727      0.0266
    169  CG1       55.1310   29.7700   35.2080 C.3   727  VAL727      0.0020
    170  CG2       52.6440   29.9460   34.8340 C.3   727  VAL727      0.0020
    171  N         56.3240   32.5250   33.2390 N.am  728  VAL728     -0.1966
    172  CA        57.6550   32.8240   32.7330 C.3   728  VAL728      0.1727
    173  C         58.6590   31.8580   33.3200 C.2   728  VAL728      0.2617
    174  O         59.5530   31.4150   32.6170 O.2   728  VAL728     -0.2715
    175  CB        58.0710   34.2060   33.1530 C.3   728  VAL728      0.0290
    176  CG1       59.5260   34.4450   32.8140 C.3   728  VAL728      0.0023
    177  CG2       57.1760   35.2230   32.4890 C.3   728  VAL728      0.0023
    178  N         58.5580   31.5810   34.6140 N.am  729  SER729     -0.1936
    179  CA        59.4260   30.5620   35.1450 C.3   729  SER729      0.2055
    180  C         58.8400   30.0960   36.4300 C.2   729  SER729      0.2643
    181  O         58.0390   30.8020   37.0750 O.2   729  SER729     -0.2714
    182  CB        60.8710   31.0280   35.3380 C.3   729  SER729      0.2130
    183  OG        60.9590   32.3710   35.7310 O.3   729  SER729     -0.2179
    184  N         59.1140   28.8360   36.6680 N.am  730  GLU730     -0.1963
    185  CA        58.6120   28.1930   37.8620 C.3   730  GLU730      0.1733
    186  C         59.6340   27.1140   38.2330 C.2   730  GLU730      0.2616
    187  O         59.9500   26.2080   37.4620 O.2   730  GLU730     -0.2715
    188  CB        57.2650   27.5500   37.5400 C.3   730  GLU730      0.0429
    189  CG        56.7460   26.6160   38.5900 C.3   730  GLU730      0.1163
    190  CD        55.3300   26.0770   38.2500 C.2   730  GLU730      0.3649
    191  OE1       55.0600   25.8050   37.0670 O.co2 730  GLU730     -0.2457
    192  OE2       54.4750   25.9400   39.1550 O.co2 730  GLU730     -0.2457
    193  N         60.2900   27.3150   39.3500 N.am  731  VAL731     -0.1977
    194  CA        61.3150   26.4130   39.8200 C.3   731  VAL731      0.1596
    195  C         60.8780   25.9930   41.2140 C.2   731  VAL731      0.2287
    196  O         60.4700   26.8380   42.0040 O.2   731  VAL731     -0.2864
    197  CB        62.6370   27.2090   39.8840 C.3   731  VAL731      0.0276
    198  CG1       63.7570   26.3830   40.4700 C.3   731  VAL731      0.0022
    199  CG2       62.9960   27.7280   38.5010 C.3   731  VAL731      0.0022
@<TRIPOS>BOND
     1    78    76    1
     2    76    75    1
     3    71    72    1
     4    75    72    1
     5    75    77    1
     6    72    73    1
     7    73    74    2
     8   163   161    1
     9   149   147   ar
    10   159   160    2
    11   159   158    1
    12    79    80    1
    13    36    34    1
    14    34    35    1
    15    34    31    1
    16   158   161    1
    17   158   157    1
    18   161   162    1
    19   147   148   ar
    20   147   146    1
    21    84    83    1
    22    92    91    1
    23    93    91    1
    24    80    83    1
    25    80    81    1
    26    91    90    1
    27    83    85    1
    28   146   145    1
    29    31    30    1
    30    31    32    1
    31   157   152   am
    32    81    82    2
    33    86    87    1
    34   153   152    2
    35    90    87    1
    36   152   151    1
    37    32    33    2
    38    32    37   am
    39   145   142    1
    40    87    88    1
    41    37    38    1
    42    42    43    1
    43    42    41    1
    44   150   151    1
    45   150   143   am
    46   151   154    1
    47   143   142    1
    48   143   144    2
    49   142   141    1
    50    43    45   am
    51    43    44    2
    52    88    94   am
    53    88    89    2
    54    38    41    1
    55    38    39    1
    56   156   154    1
    57    94    95    1
    58   154   155    1
    59   141   134   am
    60    50    47    1
    61    39    40    2
    62    46    47    1
    63    95    96    1
    64    47    48    1
    65   134   135    2
    66   134   133    1
    67    96    97    2
    68   115   116    1
    69   133   132    1
    70   133   136    1
    71    48    51   am
    72    48    49    2
    73   121   119    1
    74    98    99    1
    75   103   102    1
    76    51    52    1
    77   139   138    2
    78   136   137    1
    79   116   119    1
    80   116   117    1
    81   119   120    1
    82   102    99    1
    83    99   100    1
    84   138   137    1
    85   138   140   am
    86    56    55    1
    87    52    55    1
    88    52    53    1
    89   118   117    2
    90   117   122   am
    91   100   101    2
    92    53    54    2
    93    61    62    1
    94    61    58    1
    95    57    58    1
    96   122   123    1
    97   124   125    2
    98   124   123    1
    99    58    59    1
   100   123   126    1
   101    29    28    1
   102   126   127    1
   103    59    63   am
   104    59    60    2
   105    28    26   ar
   106    28    27   ar
   107    63    64    1
   108    26    24   ar
   109   127   128   ar
   110   127   129   ar
   111   128   130   ar
   112    27    25   ar
   113   104   105    1
   114   129   131   ar
   115   110   109    1
   116   110   111    1
   117    24    23   ar
   118   130   131   ar
   119    25    23   ar
   120    64    67    1
   121    64    65    1
   122   109   108    1
   123    23    22    1
   124    67    68    1
   125   111   112    2
   126   105   108    1
   127   105   106    1
   128    65    66    2
   129    22    19    1
   130   113   112    1
   131   112   114    1
   132   106   107    2
   133    68    70   am
   134    68    69    2
   135    19    20    1
   136    19    18    1
   137    21    20    2
   138   167   166    2
   139   164   165    1
   140   177   175    1
   141   174   173    2
   142    16    15    2
   143    18    15   am
   144   172   175    1
   145   172   171    1
   146   172   173    1
   147   176   175    1
   148   166   171   am
   149   166   165    1
   150    17    14    1
   151    15    14    1
   152   173   178   am
   153   165   168    1
   154    14    13    1
   155   168   170    1
   156   168   169    1
   157   178   179    1
   158   179   182    1
   159   179   180    1
   160   182   183    1
   161    12    11    2
   162    11    10    1
   163   180   184   am
   164   180   181    2
   165    10     9    1
   166   184   185    1
   167   191   190   ar
   168     9     3   am
   169   187   186    2
   170   188   185    1
   171   188   189    1
   172     8     7    1
   173   185   186    1
   174   186   193   am
   175   190   189    1
   176   190   192   ar
   177     3     2    1
   178     3     4    2
   179     6     7    1
   180     6     5    1
   181   199   197    1
   182     2     5    1
   183     2     1    1
   184   193   194    1
   185   194   197    1
   186   194   195    1
   187   197   198    1
   188   195   196    2
