@<TRIPOS>MOLECULE
tmp/1lshA13.pdb
 95 88 0 0 0
SMALL
GASTEIGER

@<TRIPOS>ATOM
      1  N         50.7840   27.7610   18.8930 N.3   376  GLN376     -0.1245
      2  CA        51.2200   28.4780   20.0700 C.3   376  GLN376      0.1566
      3  C         51.2910   27.4620   21.2070 C.2   376  GLN376      0.2260
      4  O         52.0960   27.5840   22.1000 O.2   376  GLN376     -0.2867
      5  CB        50.1690   29.5400   20.4350 C.3   376  GLN376      0.0367
      6  CG        49.8150   30.5650   19.2990 C.3   376  GLN376      0.0905
      7  CD        48.6270   31.5200   19.6340 C.2   376  GLN376      0.2608
      8  OE1       47.4920   31.0830   19.8490 O.2   376  GLN376     -0.2717
      9  NE2       48.9000   32.8210   19.6420 N.am  376  GLN376     -0.0878
     10  N         39.9930   45.2690   18.4930 N.3   720  VAL720     -0.1245
     11  CA        40.7930   44.0460   18.6570 C.3   720  VAL720      0.1561
     12  C         41.2990   43.9230   20.0990 C.2   720  VAL720      0.2260
     13  O         41.6890   44.9400   20.6550 O.2   720  VAL720     -0.2867
     14  CB        42.0640   44.0880   17.7600 C.3   720  VAL720      0.0252
     15  CG1       43.0990   43.0960   18.2900 C.3   720  VAL720      0.0019
     16  CG2       41.6880   43.6960   16.3360 C.3   720  VAL720      0.0019
     17  N         43.8990   41.4890   22.5640 N.3   722  LEU722     -0.1245
     18  CA        44.7570   40.3050   22.6890 C.3   722  LEU722      0.1561
     19  C         45.2570   40.3060   24.1220 C.2   722  LEU722      0.2260
     20  O         45.5010   41.3850   24.6570 O.2   722  LEU722     -0.2867
     21  CB        45.9670   40.3510   21.7530 C.3   722  LEU722      0.0270
     22  CG        46.7030   39.0140   21.9200 C.3   722  LEU722      0.0019
     23  CD1       45.7330   37.8620   21.6750 C.3   722  LEU722      0.0001
     24  CD2       47.9190   38.9080   21.0110 C.3   722  LEU722      0.0001
     25  N         47.2820   37.8580   27.0300 N.3   724  LYS724     -0.1245
     26  CA        48.0030   36.6160   27.1630 C.3   724  LYS724      0.1561
     27  C         48.3370   36.4740   28.6480 C.2   724  LYS724      0.2260
     28  O         48.6080   37.4920   29.2810 O.2   724  LYS724     -0.2867
     29  CB        49.2880   36.6320   26.3380 C.3   724  LYS724      0.0271
     30  CG        49.8400   35.1960   26.2050 C.3   724  LYS724      0.0035
     31  CD        50.6930   35.0290   24.9590 C.3   724  LYS724      0.0206
     32  CE        51.0330   33.5600   24.7440 C.3   724  LYS724      0.1093
     33  NZ        49.8060   32.7110   24.5480 N.3   724  LYS724     -0.1314
     34  N         46.1340   43.8130   25.3240 N.3   755  ASN755     -0.1225
     35  CA        46.3310   44.8720   24.3400 C.3   755  ASN755      0.1785
     36  C         45.0150   45.0180   23.5820 C.2   755  ASN755      0.2597
     37  O         44.4020   44.0120   23.2350 O.2   755  ASN755     -0.2718
     38  CB        47.4140   44.5060   23.3170 C.3   755  ASN755      0.1169
     39  CG        48.7310   44.0500   23.9690 C.2   755  ASN755      0.2627
     40  OD1       48.9950   42.8480   24.1080 O.2   755  ASN755     -0.2716
     41  ND2       49.5560   45.0070   24.3590 N.am  755  ASN755     -0.0877
     42  N         44.4880   46.2150   23.5930 N.am  756  ARG756     -0.1966
     43  CA        43.2130   46.4840   22.9060 C.3   756  ARG756      0.1729
     44  C         43.3640   47.6680   21.9820 C.2   756  ARG756      0.2616
     45  O         43.8480   48.7470   22.4000 O.2   756  ARG756     -0.2715
     46  CB        42.1090   46.7850   23.9320 C.3   756  ARG756      0.0348
     47  CG        40.6970   46.6530   23.3220 C.3   756  ARG756      0.0492
     48  CD        39.5630   46.9640   24.3090 C.3   756  ARG756      0.2205
     49  NE        38.3240   46.3870   23.7760 N.pl3 756  ARG756     -0.0865
     50  CZ        37.7540   45.2690   24.2210 C.cat 756  ARG756      0.5346
     51  NH1       38.2540   44.6330   25.2690 N.pl3 756  ARG756      0.1354
     52  NH2       36.7250   44.7370   23.5630 N.pl3 756  ARG756      0.1354
     53  N         42.7950   47.5330   20.7910 N.am  757  ALA757     -0.1977
     54  CA        42.8130   48.6400   19.8580 C.3   757  ALA757      0.1597
     55  C         41.4560   48.7570   19.1930 C.2   757  ALA757      0.2287
     56  O         40.8300   47.7290   18.9530 O.2   757  ALA757     -0.2864
     57  CB        43.8930   48.4240   18.8150 C.3   757  ALA757      0.0319
     58  N         43.5930   53.0100   21.6960 N.3   786  ALA786     -0.1231
     59  CA        44.4080   51.8380   21.9660 C.3   786  ALA786      0.1694
     60  C         45.0910   51.8710   23.3670 C.2   786  ALA786      0.2593
     61  O         45.2640   52.9430   23.9700 O.2   786  ALA786     -0.2718
     62  CB        45.4400   51.6740   20.8560 C.3   786  ALA786      0.0304
     63  N         45.2510   50.6920   23.9690 N.am  787  THR787     -0.1939
     64  CA        45.9510   50.5230   25.2630 C.3   787  THR787      0.2028
     65  C         46.8230   49.2760   25.2500 C.2   787  THR787      0.2642
     66  O         46.4580   48.2680   24.6450 O.2   787  THR787     -0.2714
     67  CB        44.9650   50.3730   26.4190 C.3   787  THR787      0.1808
     68  OG1       44.0910   51.4980   26.4380 O.3   787  THR787     -0.2208
     69  CG2       45.7430   50.3350   27.7380 C.3   787  THR787      0.0379
     70  N         48.0370   49.3650   25.7770 N.am  788  THR788     -0.1950
     71  CA        48.8900   48.1930   25.8640 C.3   788  THR788      0.1897
     72  C         49.2960   48.2250   27.3180 C.2   788  THR788      0.2313
     73  O         49.4610   49.2930   27.9070 O.2   788  THR788     -0.2863
     74  CB        50.1060   48.2840   24.9100 C.3   788  THR788      0.1794
     75  OG1       50.8680   47.0620   24.9480 O.3   788  THR788     -0.2208
     76  CG2       51.0320   49.4350   25.3100 C.3   788  THR788      0.0378
     77  N         50.3520   52.0040   28.7220 N.3   819  LEU819     -0.1231
     78  CA        50.2610   53.3220   28.1140 C.3   819  LEU819      0.1693
     79  C         49.0000   53.3430   27.2790 C.2   819  LEU819      0.2593
     80  O         48.5120   52.2880   26.9180 O.2   819  LEU819     -0.2718
     81  CB        51.4710   53.5960   27.2320 C.3   819  LEU819      0.0284
     82  CG        51.3510   55.0180   26.6840 C.3   819  LEU819      0.0019
     83  CD1       51.3800   55.9950   27.8540 C.3   819  LEU819      0.0001
     84  CD2       52.4530   55.3080   25.6760 C.3   819  LEU819      0.0001
     85  N         48.4270   54.5210   27.0800 N.am  820  GLY820     -0.1942
     86  CA        47.1950   54.6610   26.3010 C.3   820  GLY820      0.2014
     87  C         47.3820   55.6710   25.1880 C.2   820  GLY820      0.2638
     88  O         48.3180   56.4620   25.2310 O.2   820  GLY820     -0.2714
     89  N         46.5710   55.5850   24.1350 N.am  821  VAL821     -0.1977
     90  CA        46.6440   56.5300   23.0220 C.3   821  VAL821      0.1596
     91  C         45.2870   56.6020   22.3490 C.2   821  VAL821      0.2287
     92  O         44.6970   55.5390   22.0900 O.2   821  VAL821     -0.2864
     93  CB        47.7050   56.1580   21.9830 C.3   821  VAL821      0.0276
     94  CG1       47.2880   54.9950   21.1040 C.3   821  VAL821      0.0022
     95  CG2       48.0150   57.3560   21.1160 C.3   821  VAL821      0.0022
@<TRIPOS>BOND
     1    16    14    1
     2    14    15    1
     3    14    11    1
     4    10    11    1
     5    11    12    1
     6    57    54    1
     7     1     2    1
     8    56    55    2
     9    55    54    1
    10     6     7    1
    11     6     5    1
    12     7     9   am
    13     7     8    2
    14    54    53    1
    15     2     5    1
    16     2     3    1
    17    12    13    2
    18    53    44   am
    19    62    59    1
    20    24    22    1
    21    94    93    1
    22    95    93    1
    23     3     4    2
    24    23    22    1
    25    58    59    1
    26    21    22    1
    27    21    18    1
    28    59    60    1
    29    44    45    2
    30    44    43    1
    31    93    90    1
    32    92    91    2
    33    91    90    1
    34    17    18    1
    35    18    19    1
    36    43    42    1
    37    43    46    1
    38    90    89    1
    39    37    36    2
    40    38    39    1
    41    38    35    1
    42    47    46    1
    43    47    48    1
    44    60    63   am
    45    60    61    2
    46    52    50    1
    47    36    42   am
    48    36    35    1
    49    49    50    2
    50    49    48    1
    51    39    40    2
    52    39    41   am
    53    63    64    1
    54    19    20    2
    55    89    87   am
    56    50    51    1
    57    35    34    1
    58    33    32    1
    59    66    65    2
    60    32    31    1
    61    74    75    1
    62    74    76    1
    63    74    71    1
    64    31    30    1
    65    87    88    2
    66    87    86    1
    67    65    64    1
    68    65    70   am
    69    64    67    1
    70    84    82    1
    71    70    71    1
    72    71    72    1
    73    30    29    1
    74    86    85    1
    75    29    26    1
    76    67    68    1
    77    67    69    1
    78    82    81    1
    79    82    83    1
    80    80    79    2
    81    25    26    1
    82    85    79   am
    83    26    27    1
    84    81    78    1
    85    79    78    1
    86    72    73    2
    87    78    77    1
    88    27    28    2
