@<TRIPOS>MOLECULE
tmp/1lshA17.pdb
 95 91 0 0 0
SMALL
GASTEIGER

@<TRIPOS>ATOM
      1  N         54.7210   23.3380   10.0240 N.3   409  ILE409     -0.1245
      2  CA        55.2880   24.0500   11.1550 C.3   409  ILE409      0.1561
      3  C         54.8630   23.4090   12.4780 C.2   409  ILE409      0.2260
      4  O         55.6390   23.3840   13.4360 O.2   409  ILE409     -0.2867
      5  CB        54.9490   25.5520   11.1140 C.3   409  ILE409      0.0252
      6  CG1       55.6790   26.1770    9.9120 C.3   409  ILE409      0.0019
      7  CG2       55.4390   26.2410   12.3890 C.3   409  ILE409      0.0019
      8  CD1       55.5610   27.6840    9.7800 C.3   409  ILE409      0.0001
      9  N         79.8220   34.5270   20.0820 N.3   627  TYR627     -0.1241
     10  CA        79.3930   34.8550   18.7600 C.3   627  TYR627      0.1605
     11  C         80.4050   34.2160   17.8030 C.2   627  TYR627      0.2264
     12  O         81.6240   34.1610   18.1070 O.2   627  TYR627     -0.2867
     13  CB        79.4010   36.3740   18.6170 C.3   627  TYR627      0.0534
     14  CG        79.3680   36.8320   17.1850 C.ar  627  TYR627     -0.0201
     15  CD1       80.5470   37.0050   16.4710 C.ar  627  TYR627     -0.0009
     16  CD2       78.1830   37.1060   16.5410 C.ar  627  TYR627     -0.0009
     17  CE1       80.5440   37.4440   15.1910 C.ar  627  TYR627      0.0417
     18  CE2       78.1940   37.5460   15.2140 C.ar  627  TYR627      0.0417
     19  CZ        79.3780   37.7100   14.5680 C.ar  627  TYR627      0.1957
     20  OH        79.4230   38.1390   13.2730 O.3   627  TYR627     -0.2866
     21  N         76.2510   32.2770   11.0380 N.3   641  VAL641     -0.1231
     22  CA        76.5660   33.1160   12.1700 C.3   641  VAL641      0.1692
     23  C         75.7060   32.6630   13.3230 C.2   641  VAL641      0.2592
     24  O         74.6590   32.1270   13.0580 O.2   641  VAL641     -0.2718
     25  CB        76.2770   34.5930   11.8670 C.3   641  VAL641      0.0266
     26  CG1       77.2640   35.1200   10.8240 C.3   641  VAL641      0.0020
     27  CG2       74.8590   34.7470   11.3550 C.3   641  VAL641      0.0020
     28  N         76.2350   32.6630   14.5520 N.am  642  ALA642     -0.1966
     29  CA        75.3730   32.2690   15.6690 C.3   642  ALA642      0.1728
     30  C         75.8090   33.0670   16.8450 C.2   642  ALA642      0.2616
     31  O         77.0020   33.4280   17.0170 O.2   642  ALA642     -0.2715
     32  CB        75.5660   30.8030   15.9190 C.3   642  ALA642      0.0334
     33  N         74.8550   33.2590   17.7330 N.am  643  ALA643     -0.1977
     34  CA        75.2320   33.9680   18.9230 C.3   643  ALA643      0.1597
     35  C         74.3730   33.3250   20.0160 C.2   643  ALA643      0.2287
     36  O         73.2690   32.8700   19.7270 O.2   643  ALA643     -0.2864
     37  CB        74.8590   35.4230   18.7480 C.3   643  ALA643      0.0319
     38  N         70.7150   31.9710   18.6380 N.3   659  PHE659     -0.1227
     39  CA        70.1310   32.1690   17.2950 C.3   659  PHE659      0.1736
     40  C         71.2830   31.8620   16.3560 C.2   659  PHE659      0.2596
     41  O         72.4190   32.0820   16.7420 O.2   659  PHE659     -0.2718
     42  CB        69.8030   33.6410   17.0050 C.3   659  PHE659      0.0547
     43  CG        68.8530   34.2800   17.9710 C.ar  659  PHE659     -0.0202
     44  CD1       69.3270   34.8890   19.1330 C.ar  659  PHE659     -0.0042
     45  CD2       67.4880   34.3210   17.7030 C.ar  659  PHE659     -0.0042
     46  CE1       68.4480   35.5440   20.0140 C.ar  659  PHE659     -0.0003
     47  CE2       66.6090   34.9720   18.5650 C.ar  659  PHE659     -0.0003
     48  CZ        67.0890   35.5830   19.7190 C.ar  659  PHE659     -0.0000
     49  N         70.9760   31.1690   15.2790 N.am  660  GLY660     -0.1942
     50  CA        71.9430   30.9030   14.2530 C.3   660  GLY660      0.2014
     51  C         71.2730   31.2160   12.9220 C.2   660  GLY660      0.2638
     52  O         70.0160   31.2600   12.7890 O.2   660  GLY660     -0.2714
     53  N         72.1180   31.4670   11.9110 N.am  661  LEU661     -0.1977
     54  CA        71.6070   31.7000   10.5510 C.3   661  LEU661      0.1596
     55  C         72.6210   31.0330    9.6890 C.2   661  LEU661      0.2287
     56  O         73.7770   31.0030   10.0930 O.2   661  LEU661     -0.2864
     57  CB        71.6850   33.1890   10.1940 C.3   661  LEU661      0.0297
     58  CG        70.8270   34.1120   11.0410 C.3   661  LEU661      0.0022
     59  CD1       71.2040   35.5820   10.9470 C.3   661  LEU661      0.0001
     60  CD2       69.3870   33.8680   10.6180 C.3   661  LEU661      0.0001
     61  N         67.6040   29.4260    9.5080 N.3   685  GLY685     -0.1210
     62  CA        67.8310   30.0330   10.7920 C.3   685  GLY685      0.1956
     63  C         67.1370   29.2110   11.8740 C.2   685  GLY685      0.2612
     64  O         66.2090   28.4540   11.5870 O.2   685  GLY685     -0.2717
     65  N         67.6200   29.3180   13.0820 N.am  686  TYR686     -0.1962
     66  CA        66.9330   28.6490   14.2010 C.3   686  TYR686      0.1771
     67  C         67.0690   29.4590   15.4320 C.2   686  TYR686      0.2619
     68  O         67.8460   30.4310   15.5160 O.2   686  TYR686     -0.2715
     69  CB        67.5410   27.2630   14.4540 C.3   686  TYR686      0.0574
     70  CG        69.0050   27.3450   14.9040 C.ar  686  TYR686     -0.0198
     71  CD1       69.3330   27.5700   16.2630 C.ar  686  TYR686     -0.0009
     72  CD2       70.0790   27.2400   13.9580 C.ar  686  TYR686     -0.0009
     73  CE1       70.6690   27.7090   16.6690 C.ar  686  TYR686      0.0417
     74  CE2       71.4270   27.3840   14.3510 C.ar  686  TYR686      0.0417
     75  CZ        71.7140   27.6140   15.7110 C.ar  686  TYR686      0.1957
     76  OH        73.0300   27.7470   16.1510 O.3   686  TYR686     -0.2866
     77  N         66.3020   29.0170   16.4290 N.am  687  VAL687     -0.1977
     78  CA        66.3520   29.7180   17.7030 C.3   687  VAL687      0.1596
     79  C         66.3150   28.6300   18.7300 C.2   687  VAL687      0.2287
     80  O         65.5250   27.7260   18.5490 O.2   687  VAL687     -0.2864
     81  CB        65.1130   30.5860   17.9640 C.3   687  VAL687      0.0276
     82  CG1       65.2310   31.1860   19.3620 C.3   687  VAL687      0.0022
     83  CG2       65.0180   31.6830   16.9220 C.3   687  VAL687      0.0022
     84  N         62.4100   26.4270   17.1560 N.3   695  VAL695     -0.1245
     85  CA        61.8590   26.7050   15.8400 C.3   695  VAL695      0.1561
     86  C         63.0230   26.8500   14.8640 C.2   695  VAL695      0.2260
     87  O         64.0960   27.2700   15.2940 O.2   695  VAL695     -0.2867
     88  CB        61.0330   28.0370   15.8400 C.3   695  VAL695      0.0252
     89  CG1       61.9220   29.2700   15.9630 C.3   695  VAL695      0.0019
     90  CG2       60.1940   28.1510   14.5720 C.3   695  VAL695      0.0019
     91  N         63.7200   27.7520   10.3980 N.3   697  ALA697     -0.1245
     92  CA        62.9700   27.9940    9.1700 C.3   697  ALA697      0.1562
     93  C         63.9710   28.1360    8.0810 C.2   697  ALA697      0.2260
     94  O         65.1250   28.4660    8.3280 O.2   697  ALA697     -0.2867
     95  CB        62.1820   29.2570    9.2780 C.3   697  ALA697      0.0290
@<TRIPOS>BOND
     1    93    94    2
     2    93    92    1
     3    92    95    1
     4    92    91    1
     5    61    62    1
     6    55    56    2
     7    55    54    1
     8     8     6    1
     9     6     5    1
    10     1     2    1
    11    57    54    1
    12    57    58    1
    13    54    53    1
    14    60    58    1
    15    62    63    1
    16    26    25    1
    17    59    58    1
    18    21    22    1
    19     5     2    1
    20     5     7    1
    21     2     3    1
    22    27    25    1
    23    64    63    2
    24    25    22    1
    25    63    65   am
    26    53    51   am
    27    22    23    1
    28     3     4    2
    29    52    51    2
    30    51    50    1
    31    24    23    2
    32    65    66    1
    33    20    19    1
    34    23    28   am
    35    72    74   ar
    36    72    70   ar
    37    66    69    1
    38    66    67    1
    39    50    49    1
    40    74    75   ar
    41    69    70    1
    42    28    29    1
    43    19    17   ar
    44    19    18   ar
    45    90    88    1
    46    86    87    2
    47    86    85    1
    48    70    71   ar
    49    17    15   ar
    50    18    16   ar
    51    49    40   am
    52    67    68    2
    53    67    77   am
    54    29    32    1
    55    29    30    1
    56    75    76    1
    57    75    73   ar
    58    85    88    1
    59    85    84    1
    60    88    89    1
    61    71    73   ar
    62    40    41    2
    63    40    39    1
    64    77    78    1
    65    15    14   ar
    66    16    14   ar
    67    30    31    2
    68    30    33   am
    69    83    81    1
    70    42    39    1
    71    42    43    1
    72    14    13    1
    73    39    38    1
    74    45    43   ar
    75    45    47   ar
    76    78    81    1
    77    78    79    1
    78    33    34    1
    79    11    12    2
    80    11    10    1
    81    81    82    1
    82    43    44   ar
    83    80    79    2
    84    47    48   ar
    85    13    10    1
    86    37    34    1
    87    10     9    1
    88    34    35    1
    89    44    46   ar
    90    48    46   ar
    91    36    35    2
