@<TRIPOS>MOLECULE
tmp/1lshA15.pdb
 95 88 0 0 0
SMALL
GASTEIGER

@<TRIPOS>ATOM
      1  N         57.2400   33.0020   38.3170 N.3   749  VAL749     -0.1245
      2  CA        57.1790   34.3310   37.7650 C.3   749  VAL749      0.1561
      3  C         56.0640   34.2220   36.7120 C.2   749  VAL749      0.2260
      4  O         56.0360   33.3230   35.8800 O.2   749  VAL749     -0.2867
      5  CB        58.4570   34.7650   37.0320 C.3   749  VAL749      0.0252
      6  CG1       58.2300   36.1060   36.3790 C.3   749  VAL749      0.0019
      7  CG2       59.6840   34.8720   37.9490 C.3   749  VAL749      0.0019
      8  N         50.6000   45.6120   30.9150 N.3   790  MET790     -0.1245
      9  CA        51.3130   44.3610   31.2490 C.3   790  MET790      0.1570
     10  C         51.5350   44.4080   32.7240 C.2   790  MET790      0.2261
     11  O         51.5880   45.4970   33.3220 O.2   790  MET790     -0.2867
     12  CB        52.6590   44.4200   30.5350 C.3   790  MET790      0.0387
     13  CG        53.4460   43.1540   30.3580 C.3   790  MET790      0.0595
     14  SD        55.0630   43.4970   29.4230 S.3   790  MET790     -0.1393
     15  CE        55.5560   45.0590   30.1420 C.3   790  MET790      0.0692
     16  N         53.5720   41.8170   35.7000 N.3   792  GLN792     -0.1245
     17  CA        54.3610   40.6470   35.9810 C.3   792  GLN792      0.1566
     18  C         54.6100   40.5880   37.4730 C.2   792  GLN792      0.2260
     19  O         54.8300   41.6480   38.0770 O.2   792  GLN792     -0.2867
     20  CB        55.7360   40.7410   35.3320 C.3   792  GLN792      0.0367
     21  CG        55.7590   40.5970   33.8700 C.3   792  GLN792      0.0905
     22  CD        56.5340   39.4130   33.4140 C.2   792  GLN792      0.2608
     23  OE1       57.5710   39.0950   33.9880 O.2   792  GLN792     -0.2717
     24  NE2       56.0400   38.7380   32.3640 N.am  792  GLN792     -0.0878
     25  N         56.6880   38.2300   40.4140 N.3   794  ALA794     -0.1245
     26  CA        57.6990   37.2270   40.7660 C.3   794  ALA794      0.1562
     27  C         57.5410   36.9480   42.2770 C.2   794  ALA794      0.2260
     28  O         57.3700   37.8600   43.0910 O.2   794  ALA794     -0.2867
     29  CB        59.1130   37.6920   40.4000 C.3   794  ALA794      0.0290
     30  N         57.4760   40.3420   44.1140 N.3   813  TYR813     -0.1227
     31  CA        57.8130   41.5550   43.3410 C.3   813  TYR813      0.1736
     32  C         56.7530   41.7250   42.2360 C.2   813  TYR813      0.2595
     33  O         56.5090   40.7760   41.4950 O.2   813  TYR813     -0.2718
     34  CB        59.1440   41.3910   42.6240 C.3   813  TYR813      0.0548
     35  CG        60.3430   41.3730   43.5080 C.ar  813  TYR813     -0.0200
     36  CD1       60.9880   42.5600   43.8780 C.ar  813  TYR813     -0.0009
     37  CD2       60.8370   40.1560   44.0020 C.ar  813  TYR813     -0.0009
     38  CE1       62.0900   42.5150   44.7430 C.ar  813  TYR813      0.0417
     39  CE2       61.9170   40.1120   44.8430 C.ar  813  TYR813      0.0417
     40  CZ        62.5300   41.2780   45.2230 C.ar  813  TYR813      0.1957
     41  OH        63.5710   41.1830   46.1150 O.3   813  TYR813     -0.2866
     42  N         56.0500   42.8560   42.1790 N.am  814  LYS814     -0.1966
     43  CA        55.0550   43.0770   41.1050 C.3   814  LYS814      0.1728
     44  C         55.3280   44.3500   40.3140 C.2   814  LYS814      0.2616
     45  O         55.5320   45.4220   40.8950 O.2   814  LYS814     -0.2715
     46  CB        53.6600   43.2500   41.6340 C.3   814  LYS814      0.0311
     47  CG        53.2330   42.3180   42.7350 C.3   814  LYS814      0.0038
     48  CD        51.9340   42.8390   43.3120 C.3   814  LYS814      0.0206
     49  CE        51.2990   41.8050   44.2220 C.3   814  LYS814      0.1093
     50  NZ        50.5760   42.5110   45.3230 N.3   814  LYS814     -0.1314
     51  N         55.2410   44.2340   38.9920 N.am  815  THR815     -0.1951
     52  CA        55.4850   45.3420   38.1280 C.3   815  THR815      0.1897
     53  C         54.3270   45.3860   37.1080 C.2   815  THR815      0.2313
     54  O         53.8420   44.3450   36.6740 O.2   815  THR815     -0.2863
     55  CB        56.8870   45.2220   37.4970 C.3   815  THR815      0.1794
     56  OG1       57.1480   46.3390   36.6350 O.3   815  THR815     -0.2208
     57  CG2       57.0070   43.9260   36.7170 C.3   815  THR815      0.0378
     58  N         54.1450   53.1870   35.1500 N.3   848  VAL848     -0.1245
     59  CA        54.8710   52.0010   35.6570 C.3   848  VAL848      0.1561
     60  C         54.6810   51.9240   37.1660 C.2   848  VAL848      0.2260
     61  O         54.9220   52.9230   37.8350 O.2   848  VAL848     -0.2867
     62  CB        56.3840   51.9900   35.3530 C.3   848  VAL848      0.0252
     63  CG1       56.9830   50.6510   35.7820 C.3   848  VAL848      0.0019
     64  CG2       56.6470   52.1340   33.8520 C.3   848  VAL848      0.0019
     65  N         55.6360   49.6180   40.4540 N.3   850  SER850     -0.1202
     66  CA        56.4250   48.4600   40.9470 C.3   850  SER850      0.2020
     67  C         56.4410   48.3740   42.4770 C.2   850  SER850      0.2619
     68  O         56.7470   49.3500   43.1810 O.2   850  SER850     -0.2717
     69  CB        57.8810   48.5060   40.4850 C.3   850  SER850      0.2103
     70  OG        58.0130   48.1910   39.1190 O.3   850  SER850     -0.2182
     71  N         56.0250   47.2340   42.9810 N.am  851  THR851     -0.1952
     72  CA        56.0310   47.0020   44.4130 C.3   851  THR851      0.1897
     73  C         56.7610   45.7070   44.7590 C.2   851  THR851      0.2313
     74  O         57.0160   44.8210   43.9380 O.2   851  THR851     -0.2863
     75  CB        54.6300   46.9190   45.0160 C.3   851  THR851      0.1794
     76  OG1       53.9870   45.7450   44.5180 O.3   851  THR851     -0.2208
     77  CG2       53.7810   48.1460   44.6800 C.3   851  THR851      0.0378
     78  N         58.7060   48.0190   49.1470 N.3   929  TYR929     -0.1241
     79  CA        59.1400   49.0310   48.2090 C.3   929  TYR929      0.1605
     80  C         57.9250   49.2870   47.2960 C.2   929  TYR929      0.2264
     81  O         57.0790   48.3980   47.1140 O.2   929  TYR929     -0.2867
     82  CB        60.3060   48.4070   47.4440 C.3   929  TYR929      0.0534
     83  CG        60.8690   49.1480   46.2750 C.ar  929  TYR929     -0.0201
     84  CD1       61.6840   50.2730   46.4710 C.ar  929  TYR929     -0.0009
     85  CD2       60.6110   48.7240   44.9510 C.ar  929  TYR929     -0.0009
     86  CE1       62.2440   50.9810   45.3930 C.ar  929  TYR929      0.0417
     87  CE2       61.1940   49.4230   43.8390 C.ar  929  TYR929      0.0417
     88  CZ        62.0020   50.5430   44.0840 C.ar  929  TYR929      0.1957
     89  OH        62.5720   51.2150   43.0300 O.3   929  TYR929     -0.2866
     90  N         57.4340   51.9370   43.8580 N.3   931  SER931     -0.1217
     91  CA        57.9910   52.9030   42.9250 C.3   931  SER931      0.1889
     92  C         56.9700   53.1730   41.7820 C.2   931  SER931      0.2288
     93  O         56.2460   52.2850   41.3440 O.2   931  SER931     -0.2866
     94  CB        59.3250   52.4580   42.3360 C.3   931  SER931      0.2089
     95  OG        59.1960   51.3140   41.5280 O.3   931  SER931     -0.2183
@<TRIPOS>BOND
     1    14    15    1
     2    14    13    1
     3    13    12    1
     4    12     9    1
     5     8     9    1
     6     9    10    1
     7    24    22   am
     8    10    11    2
     9    22    21    1
    10    22    23    2
    11    64    62    1
    12    21    20    1
    13    58    59    1
    14    20    17    1
    15    62    59    1
    16    62    63    1
    17    59    60    1
    18    16    17    1
    19     4     3    2
    20    17    18    1
    21     6     5    1
    22    56    55    1
    23    54    53    2
    24     3     2    1
    25    57    55    1
    26     5     2    1
    27     5     7    1
    28    53    52    1
    29    60    61    2
    30    18    19    2
    31    55    52    1
    32     2     1    1
    33    52    51    1
    34    51    44   am
    35    70    69    1
    36    44    45    2
    37    44    43    1
    38    29    26    1
    39    25    26    1
    40    65    66    1
    41    69    66    1
    42    26    27    1
    43    66    67    1
    44    43    46    1
    45    43    42    1
    46    93    92    2
    47    33    32    2
    48    95    94    1
    49    46    47    1
    50    92    91    1
    51    42    32   am
    52    32    31    1
    53    27    28    2
    54    94    91    1
    55    67    71   am
    56    67    68    2
    57    34    31    1
    58    34    35    1
    59    47    48    1
    60    91    90    1
    61    71    72    1
    62    89    88    1
    63    48    49    1
    64    31    30    1
    65    35    36   ar
    66    35    37   ar
    67    87    88   ar
    68    87    85   ar
    69    36    38   ar
    70    74    73    2
    71    37    39   ar
    72    88    86   ar
    73    49    50    1
    74    72    73    1
    75    72    75    1
    76    76    75    1
    77    77    75    1
    78    38    40   ar
    79    39    40   ar
    80    85    83   ar
    81    40    41    1
    82    86    84   ar
    83    83    84   ar
    84    83    82    1
    85    81    80    2
    86    80    79    1
    87    82    79    1
    88    79    78    1
