@<TRIPOS>MOLECULE
tmp/1lshA11.pdb
 117 110 0 0 0
SMALL
GASTEIGER

@<TRIPOS>ATOM
      1  N         94.2930   38.2680   10.8020 N.3   602  LEU602     -0.1231
      2  CA        93.3380   37.9880    9.7490 C.3   602  LEU602      0.1693
      3  C         92.1350   38.8950    9.9960 C.2   602  LEU602      0.2593
      4  O         91.7340   39.0840   11.1440 O.2   602  LEU602     -0.2718
      5  CB        92.9360   36.5060    9.8110 C.3   602  LEU602      0.0284
      6  CG        94.1790   35.6560    9.5520 C.3   602  LEU602      0.0019
      7  CD1       93.8840   34.1710    9.6460 C.3   602  LEU602      0.0001
      8  CD2       94.6720   36.0010    8.1370 C.3   602  LEU602      0.0001
      9  N         91.5140   39.4160    8.9470 N.am  603  GLY603     -0.1942
     10  CA        90.4070   40.3290    9.1630 C.3   603  GLY603      0.2014
     11  C         89.0620   39.6560    9.0600 C.2   603  GLY603      0.2639
     12  O         88.9600   38.4310    9.0260 O.2   603  GLY603     -0.2714
     13  N         88.1050   40.4880    8.6710 N.am  604  CYS604     -0.1967
     14  CA        86.7010   40.1450    8.5750 C.3   604  CYS604      0.1712
     15  C         86.4430   39.0890    7.5310 C.2   604  CYS604      0.2296
     16  O         85.4180   38.4400    7.5830 O.2   604  CYS604     -0.2864
     17  CB        85.8300   41.3800    8.3010 C.3   604  CYS604      0.0983
     18  SG        85.9800   42.0970    6.6320 S.3   604  CYS604     -0.0798
     19  N         85.6290   33.6950   12.9740 N.3   608  LYS608     -0.1245
     20  CA        86.0680   34.1000   14.2770 C.3   608  LYS608      0.1561
     21  C         85.0440   33.6490   15.2610 C.2   608  LYS608      0.2260
     22  O         83.8410   33.5620   14.9770 O.2   608  LYS608     -0.2867
     23  CB        86.0960   35.6360   14.4840 C.3   608  LYS608      0.0271
     24  CG        86.8180   36.4650   13.4480 C.3   608  LYS608      0.0035
     25  CD        88.3290   36.4940   13.5570 C.3   608  LYS608      0.0206
     26  CE        88.8790   37.5170   12.5070 C.3   608  LYS608      0.1093
     27  NZ        90.1630   37.0480   12.0530 N.3   608  LYS608     -0.1314
     28  N         84.0680   34.8390   19.3840 N.3   610  VAL610     -0.1245
     29  CA        84.3110   35.7820   20.4360 C.3   610  VAL610      0.1561
     30  C         83.4950   35.3380   21.6450 C.2   610  VAL610      0.2260
     31  O         82.3240   35.0380   21.4890 O.2   610  VAL610     -0.2867
     32  CB        83.8480   37.1820   20.0340 C.3   610  VAL610      0.0252
     33  CG1       83.7590   38.0610   21.2810 C.3   610  VAL610      0.0019
     34  CG2       84.8300   37.7650   18.9920 C.3   610  VAL610      0.0019
     35  N         82.5400   36.5510   25.6080 N.3   612  VAL612     -0.1245
     36  CA        82.5820   37.6400   26.5360 C.3   612  VAL612      0.1561
     37  C         81.7820   37.1950   27.7320 C.2   612  VAL612      0.2260
     38  O         80.8870   36.3700   27.6460 O.2   612  VAL612     -0.2867
     39  CB        82.0420   38.9820   25.9580 C.3   612  VAL612      0.0252
     40  CG1       82.9970   39.5280   24.8710 C.3   612  VAL612      0.0019
     41  CG2       80.6720   38.8010   25.3440 C.3   612  VAL612      0.0019
     42  N         78.5300   35.3550   26.8770 N.3   625  ALA625     -0.1231
     43  CA        77.9190   35.4050   25.5520 C.3   625  ALA625      0.1694
     44  C         78.9580   34.9450   24.5400 C.2   625  ALA625      0.2592
     45  O         80.1390   35.1110   24.7860 O.2   625  ALA625     -0.2718
     46  CB        77.4670   36.8310   25.2350 C.3   625  ALA625      0.0304
     47  N         78.5340   34.3390   23.4730 N.am  626  ASP626     -0.1960
     48  CA        79.4690   33.9350   22.4210 C.3   626  ASP626      0.1840
     49  C         78.9100   34.2930   21.0650 C.2   626  ASP626      0.2622
     50  O         77.7220   34.2570   20.8510 O.2   626  ASP626     -0.2715
     51  CB        79.6410   32.4220   22.3690 C.3   626  ASP626      0.1450
     52  CG        80.2080   31.8280   23.6500 C.2   626  ASP626      0.3671
     53  OD1       79.3880   31.5320   24.5340 O.co2 626  ASP626     -0.2456
     54  OD2       81.4310   31.5620   23.7530 O.co2 626  ASP626     -0.2456
     55  N         79.8220   34.5270   20.0820 N.am  627  TYR627     -0.1974
     56  CA        79.3930   34.8550   18.7600 C.3   627  TYR627      0.1639
     57  C         80.4050   34.2160   17.8030 C.2   627  TYR627      0.2290
     58  O         81.6240   34.1610   18.1070 O.2   627  TYR627     -0.2864
     59  CB        79.4010   36.3740   18.6170 C.3   627  TYR627      0.0560
     60  CG        79.3680   36.8320   17.1850 C.ar  627  TYR627     -0.0198
     61  CD1       80.5470   37.0050   16.4710 C.ar  627  TYR627     -0.0009
     62  CD2       78.1830   37.1060   16.5410 C.ar  627  TYR627     -0.0009
     63  CE1       80.5440   37.4440   15.1910 C.ar  627  TYR627      0.0417
     64  CE2       78.1940   37.5460   15.2140 C.ar  627  TYR627      0.0417
     65  CZ        79.3780   37.7100   14.5680 C.ar  627  TYR627      0.1957
     66  OH        79.4230   38.1390   13.2730 O.3   627  TYR627     -0.2866
     67  N         81.2600   33.3570   13.6300 N.3   629  ARG629     -0.1245
     68  CA        81.0550   33.7280   12.2450 C.3   629  ARG629      0.1563
     69  C         81.8840   32.7820   11.4310 C.2   629  ARG629      0.2260
     70  O         83.0750   32.6350   11.6910 O.2   629  ARG629     -0.2867
     71  CB        81.5360   35.1420   11.9830 C.3   629  ARG629      0.0307
     72  CG        81.4950   35.4950   10.4660 C.3   629  ARG629      0.0489
     73  CD        82.0000   36.9220   10.3470 C.3   629  ARG629      0.2205
     74  NE        83.4520   36.9120   10.3590 N.pl3 629  ARG629     -0.0865
     75  CZ        84.1710   37.9020   10.8240 C.cat 629  ARG629      0.5346
     76  NH1       83.5800   38.9380   11.3680 N.pl3 629  ARG629      0.1354
     77  NH2       85.4680   37.8800   10.6830 N.pl3 629  ARG629      0.1354
     78  N         74.8550   33.2590   17.7330 N.3   643  ALA643     -0.1231
     79  CA        75.2320   33.9680   18.9230 C.3   643  ALA643      0.1694
     80  C         74.3730   33.3250   20.0160 C.2   643  ALA643      0.2592
     81  O         73.2690   32.8700   19.7270 O.2   643  ALA643     -0.2718
     82  CB        74.8590   35.4230   18.7480 C.3   643  ALA643      0.0304
     83  N         74.9160   33.2250   21.2110 N.am  644  LYS644     -0.1966
     84  CA        74.2510   32.5410   22.3200 C.3   644  LYS644      0.1728
     85  C         74.4590   33.3510   23.5840 C.2   644  LYS644      0.2616
     86  O         75.4900   34.0020   23.7030 O.2   644  LYS644     -0.2715
     87  CB        74.8880   31.1490   22.4500 C.3   644  LYS644      0.0311
     88  CG        74.8440   30.4270   23.7970 C.3   644  LYS644      0.0038
     89  CD        75.7570   29.1520   23.7470 C.3   644  LYS644      0.0206
     90  CE        76.4470   28.8460   25.1130 C.3   644  LYS644      0.1093
     91  NZ        76.4910   27.3250   25.3740 N.3   644  LYS644     -0.1314
     92  N         73.5040   33.2770   24.5030 N.am  645  ILE645     -0.1977
     93  CA        73.7400   33.8780   25.7670 C.3   645  ILE645      0.1596
     94  C         73.3690   32.9230   26.8610 C.2   645  ILE645      0.2287
     95  O         72.5010   32.0690   26.7140 O.2   645  ILE645     -0.2864
     96  CB        73.2260   35.3160   25.8800 C.3   645  ILE645      0.0276
     97  CG1       73.3150   35.7700   27.3400 C.3   645  ILE645      0.0022
     98  CG2       71.8070   35.4180   25.3770 C.3   645  ILE645      0.0022
     99  CD1       73.1160   37.2710   27.5170 C.3   645  ILE645      0.0001
    100  N         69.3630   31.8970   25.4000 N.3   657  VAL657     -0.1245
    101  CA        68.7810   31.9340   24.0670 C.3   657  VAL657      0.1561
    102  C         69.9280   31.9300   23.1170 C.2   657  VAL657      0.2260
    103  O         71.0400   32.2760   23.5160 O.2   657  VAL657     -0.2867
    104  CB        67.8440   33.1390   23.8110 C.3   657  VAL657      0.0252
    105  CG1       68.6240   34.4470   23.8880 C.3   657  VAL657      0.0019
    106  CG2       67.1760   33.0000   22.4200 C.3   657  VAL657      0.0019
    107  N         70.7150   31.9710   18.6380 N.3   659  PHE659     -0.1241
    108  CA        70.1310   32.1690   17.2950 C.3   659  PHE659      0.1605
    109  C         71.2830   31.8620   16.3560 C.2   659  PHE659      0.2264
    110  O         72.4190   32.0820   16.7420 O.2   659  PHE659     -0.2867
    111  CB        69.8030   33.6410   17.0050 C.3   659  PHE659      0.0534
    112  CG        68.8530   34.2800   17.9710 C.ar  659  PHE659     -0.0203
    113  CD1       69.3270   34.8890   19.1330 C.ar  659  PHE659     -0.0042
    114  CD2       67.4880   34.3210   17.7030 C.ar  659  PHE659     -0.0042
    115  CE1       68.4480   35.5440   20.0140 C.ar  659  PHE659     -0.0003
    116  CE2       66.6090   34.9720   18.5650 C.ar  659  PHE659     -0.0003
    117  CZ        67.0890   35.5830   19.7190 C.ar  659  PHE659     -0.0000
@<TRIPOS>BOND
     1    18    17    1
     2    15    16    2
     3    15    14    1
     4     8     6    1
     5    17    14    1
     6    14    13    1
     7    13    11   am
     8     9    10    1
     9     9     3   am
    10    12    11    2
    11    11    10    1
    12     6     7    1
    13     6     5    1
    14     2     5    1
    15     2     3    1
    16     2     1    1
    17     3     4    2
    18    73    74    1
    19    73    72    1
    20    74    75    2
    21    72    71    1
    22    77    75    1
    23    75    76    1
    24    69    70    2
    25    69    68    1
    26    71    68    1
    27    27    26    1
    28    68    67    1
    29    26    25    1
    30    19    20    1
    31    66    65    1
    32    24    25    1
    33    24    23    1
    34    20    23    1
    35    20    21    1
    36    65    63   ar
    37    65    64   ar
    38    22    21    2
    39    63    61   ar
    40    64    62   ar
    41   109   110    2
    42   109   108    1
    43    61    60   ar
    44    62    60   ar
    45   111   108    1
    46   111   112    1
    47    60    59    1
    48   108   107    1
    49   114   112   ar
    50   114   116   ar
    51    78    79    1
    52    57    58    2
    53    57    56    1
    54   112   113   ar
    55   116   117   ar
    56    59    56    1
    57    82    79    1
    58    56    55    1
    59    79    80    1
    60    34    32    1
    61   113   115   ar
    62    28    29    1
    63   117   115   ar
    64    81    80    2
    65    80    83   am
    66    32    29    1
    67    32    33    1
    68    55    49   am
    69    29    30    1
    70    50    49    2
    71    49    48    1
    72    83    84    1
    73    31    30    2
    74    84    87    1
    75    84    85    1
    76    51    48    1
    77    51    52    1
    78   106   104    1
    79    48    47    1
    80    87    88    1
    81   102   103    2
    82   102   101    1
    83    47    44   am
    84    85    86    2
    85    85    92   am
    86    52    54   ar
    87    52    53   ar
    88    89    88    1
    89    89    90    1
    90   104   105    1
    91   104   101    1
    92   101   100    1
    93    92    93    1
    94    44    45    2
    95    44    43    1
    96    40    39    1
    97    90    91    1
    98    46    43    1
    99    41    39    1
   100    98    96    1
   101    43    42    1
   102    35    36    1
   103    93    96    1
   104    93    94    1
   105    96    97    1
   106    39    36    1
   107    36    37    1
   108    95    94    2
   109    97    99    1
   110    38    37    2
