@<TRIPOS>MOLECULE
tmp/1lshA10.pdb
 169 160 0 0 0
SMALL
GASTEIGER

@<TRIPOS>ATOM
      1  N         71.0180   32.3670   48.5410 N.3   223  VAL223     -0.1231
      2  CA        70.7580   32.4930   47.1180 C.3   223  VAL223      0.1692
      3  C         71.9090   33.2260   46.4840 C.2   223  VAL223      0.2592
      4  O         72.0950   33.0910   45.2940 O.2   223  VAL223     -0.2718
      5  CB        69.4250   33.2110   46.7470 C.3   223  VAL223      0.0266
      6  CG1       68.2050   32.3930   47.1740 C.3   223  VAL223      0.0020
      7  CG2       69.3850   34.6020   47.3370 C.3   223  VAL223      0.0020
      8  N         72.7010   33.9340   47.2950 N.am  224  PHE224     -0.1976
      9  CA        73.8570   34.6660   46.8050 C.3   224  PHE224      0.1639
     10  C         75.0510   34.0280   47.4690 C.2   224  PHE224      0.2290
     11  O         74.9540   32.8890   47.9000 O.2   224  PHE224     -0.2864
     12  CB        73.7210   36.1590   47.1660 C.3   224  PHE224      0.0560
     13  CG        72.4910   36.8410   46.6020 C.ar  224  PHE224     -0.0200
     14  CD1       72.1670   36.7530   45.2370 C.ar  224  PHE224     -0.0042
     15  CD2       71.6640   37.5870   47.4300 C.ar  224  PHE224     -0.0042
     16  CE1       71.0470   37.4080   44.7300 C.ar  224  PHE224     -0.0003
     17  CE2       70.5340   38.2430   46.9300 C.ar  224  PHE224     -0.0003
     18  CZ        70.2240   38.1560   45.5600 C.ar  224  PHE224     -0.0000
     19  N         81.0420   37.8570   32.3250 N.3   614  THR614     -0.1218
     20  CA        81.1230   38.6530   33.5370 C.3   614  THR614      0.1862
     21  C         80.4570   37.8730   34.6770 C.2   614  THR614      0.2287
     22  O         79.7450   36.9490   34.4280 O.2   614  THR614     -0.2866
     23  CB        80.4260   40.0220   33.4120 C.3   614  THR614      0.1770
     24  OG1       80.7420   40.8340   34.5680 O.3   614  THR614     -0.2211
     25  CG2       78.9190   39.8730   33.3400 C.3   614  THR614      0.0375
     26  N         79.7460   38.1350   39.1350 N.3   616  ASN616     -0.1240
     27  CA        79.7680   38.9190   40.3560 C.3   616  ASN616      0.1653
     28  C         79.9020   37.9810   41.5330 C.2   616  ASN616      0.2266
     29  O         79.0630   37.1160   41.7660 O.2   616  ASN616     -0.2867
     30  CB        78.4780   39.7530   40.4300 C.3   616  ASN616      0.1155
     31  CG        78.4710   40.6780   41.6270 C.2   616  ASN616      0.2627
     32  OD1       78.7500   40.2670   42.7600 O.2   616  ASN616     -0.2716
     33  ND2       78.2420   41.9450   41.3720 N.am  616  ASN616     -0.0877
     34  N         76.8600   38.1510   44.3140 N.3   619  THR619     -0.1218
     35  CA        75.6310   37.4930   43.9170 C.3   619  THR619      0.1862
     36  C         75.9500   36.0510   43.5110 C.2   619  THR619      0.2287
     37  O         75.0680   35.2350   43.4560 O.2   619  THR619     -0.2866
     38  CB        74.9550   38.1860   42.7010 C.3   619  THR619      0.1770
     39  OG1       75.8590   38.1890   41.5840 O.3   619  THR619     -0.2211
     40  CG2       74.5230   39.6160   43.0630 C.3   619  THR619      0.0375
     41  N         76.5670   35.1440   40.6190 N.3   621  ALA621     -0.1231
     42  CA        75.7630   35.0530   39.3950 C.3   621  ALA621      0.1694
     43  C         76.5400   35.7530   38.2560 C.2   621  ALA621      0.2593
     44  O         77.3810   36.6270   38.4840 O.2   621  ALA621     -0.2718
     45  CB        74.3970   35.7450   39.5730 C.3   621  ALA621      0.0304
     46  N         76.2470   35.3890   37.0440 N.am  622  GLY622     -0.1942
     47  CA        77.0180   35.9870   35.9580 C.3   622  GLY622      0.2014
     48  C         76.3010   35.6590   34.6610 C.2   622  GLY622      0.2638
     49  O         75.2620   34.9860   34.6500 O.2   622  GLY622     -0.2714
     50  N         76.8910   36.1180   33.5420 N.am  623  VAL623     -0.1977
     51  CA        76.3480   35.9010   32.2210 C.3   623  VAL623      0.1596
     52  C         77.4690   35.8000   31.1830 C.2   623  VAL623      0.2287
     53  O         78.4050   36.5780   31.2060 O.2   623  VAL623     -0.2864
     54  CB        75.4300   37.0650   31.8260 C.3   623  VAL623      0.0276
     55  CG1       76.2380   38.3200   31.5510 C.3   623  VAL623      0.0022
     56  CG2       74.5610   36.6880   30.6400 C.3   623  VAL623      0.0022
     57  N         73.6250   31.9160   31.2960 N.3   647  GLY647     -0.1210
     58  CA        73.5530   32.4960   32.6250 C.3   647  GLY647      0.1956
     59  C         74.0940   31.5860   33.6800 C.2   647  GLY647      0.2612
     60  O         73.9830   30.3700   33.5660 O.2   647  GLY647     -0.2717
     61  N         74.6470   32.1420   34.7600 N.am  648  GLN648     -0.1965
     62  CA        75.1510   31.2600   35.8180 C.3   648  GLN648      0.1733
     63  C         74.6020   31.8050   37.1420 C.2   648  GLN648      0.2617
     64  O         74.4830   33.0320   37.3170 O.2   648  GLN648     -0.2715
     65  CB        76.6830   31.3060   35.8990 C.3   648  GLN648      0.0408
     66  CG        77.5510   30.8060   34.6750 C.3   648  GLN648      0.0908
     67  CD        77.5800   31.7490   33.5060 C.2   648  GLN648      0.2608
     68  OE1       77.4820   32.9520   33.6870 O.2   648  GLN648     -0.2717
     69  NE2       77.7040   31.1960   32.2670 N.am  648  GLN648     -0.0878
     70  N         74.2450   30.9240   38.0550 N.am  649  GLY649     -0.1940
     71  CA        73.7390   31.4220   39.3560 C.3   649  GLY649      0.2014
     72  C         73.4330   30.2330   40.1980 C.2   649  GLY649      0.2638
     73  O         73.1460   29.1430   39.6750 O.2   649  GLY649     -0.2714
     74  N         73.5900   30.4160   41.5020 N.am  650  MET650     -0.1976
     75  CA        73.3380   29.3530   42.4950 C.3   650  MET650      0.1605
     76  C         74.0940   28.0760   42.1330 C.2   650  MET650      0.2287
     77  O         73.6640   26.9670   42.3830 O.2   650  MET650     -0.2864
     78  CB        71.8570   29.1430   42.6950 C.3   650  MET650      0.0413
     79  CG        71.2120   30.2810   43.4060 C.3   650  MET650      0.0598
     80  SD        69.5000   29.8790   43.7550 S.3   650  MET650     -0.1393
     81  CE        69.6880   28.9440   45.1830 C.3   650  MET650      0.0692
     82  N         74.7170   26.7860   39.2650 N.3   652  TYR652     -0.1227
     83  CA        74.2850   26.1190   38.0470 C.3   652  TYR652      0.1736
     84  C         74.3880   27.0690   36.9010 C.2   652  TYR652      0.2595
     85  O         74.5660   28.2480   37.1290 O.2   652  TYR652     -0.2718
     86  CB        72.8270   25.6860   38.1930 C.3   652  TYR652      0.0548
     87  CG        72.7090   24.4860   39.0660 C.ar  652  TYR652     -0.0200
     88  CD1       72.6700   24.5930   40.5100 C.ar  652  TYR652     -0.0009
     89  CD2       72.6780   23.2430   38.4940 C.ar  652  TYR652     -0.0009
     90  CE1       72.6400   23.4150   41.3110 C.ar  652  TYR652      0.0417
     91  CE2       72.6170   22.1040   39.2570 C.ar  652  TYR652      0.0417
     92  CZ        72.6070   22.1880   40.6550 C.ar  652  TYR652      0.1957
     93  OH        72.5490   20.9990   41.3130 O.3   652  TYR652     -0.2866
     94  N         74.3100   26.5540   35.6840 N.am  653  ALA653     -0.1966
     95  CA        74.2970   27.4320   34.5350 C.3   653  ALA653      0.1728
     96  C         73.2610   26.9700   33.5260 C.2   653  ALA653      0.2616
     97  O         72.8660   25.8230   33.5130 O.2   653  ALA653     -0.2715
     98  CB        75.6520   27.4510   33.8480 C.3   653  ALA653      0.0334
     99  N         72.8280   27.9020   32.6940 N.am  654  SER654     -0.1950
    100  CA        71.9610   27.4990   31.6290 C.3   654  SER654      0.1924
    101  C         72.0750   28.3640   30.4160 C.2   654  SER654      0.2314
    102  O         72.1140   29.6020   30.5640 O.2   654  SER654     -0.2863
    103  CB        70.4980   27.5240   32.0900 C.3   654  SER654      0.2116
    104  OG        69.6510   27.2240   30.9890 O.3   654  SER654     -0.2180
    105  N         70.4170   30.5500   27.8160 N.3   656  ILE656     -0.1245
    106  CA        69.2230   31.3520   27.8150 C.3   656  ILE656      0.1561
    107  C         68.6250   31.3630   26.4100 C.2   656  ILE656      0.2260
    108  O         67.5360   30.8120   26.2070 O.2   656  ILE656     -0.2867
    109  CB        69.5440   32.7830   28.2660 C.3   656  ILE656      0.0252
    110  CG1       70.0870   32.7430   29.7010 C.3   656  ILE656      0.0019
    111  CG2       68.2410   33.5940   28.2840 C.3   656  ILE656      0.0019
    112  CD1       70.6860   34.0990   30.1720 C.3   656  ILE656      0.0001
    113  N         57.4760   40.3420   44.1140 N.3   813  TYR813     -0.1241
    114  CA        57.8130   41.5550   43.3410 C.3   813  TYR813      0.1605
    115  C         56.7530   41.7250   42.2360 C.2   813  TYR813      0.2264
    116  O         56.5090   40.7760   41.4950 O.2   813  TYR813     -0.2867
    117  CB        59.1440   41.3910   42.6240 C.3   813  TYR813      0.0534
    118  CG        60.3430   41.3730   43.5080 C.ar  813  TYR813     -0.0201
    119  CD1       60.9880   42.5600   43.8780 C.ar  813  TYR813     -0.0009
    120  CD2       60.8370   40.1560   44.0020 C.ar  813  TYR813     -0.0009
    121  CE1       62.0900   42.5150   44.7430 C.ar  813  TYR813      0.0417
    122  CE2       61.9170   40.1120   44.8430 C.ar  813  TYR813      0.0417
    123  CZ        62.5300   41.2780   45.2230 C.ar  813  TYR813      0.1957
    124  OH        63.5710   41.1830   46.1150 O.3   813  TYR813     -0.2866
    125  N         57.2390   45.6990   45.9780 N.3   852  MET852     -0.1245
    126  CA        57.8720   44.5200   46.5250 C.3   852  MET852      0.1570
    127  C         57.4410   44.4150   47.9530 C.2   852  MET852      0.2261
    128  O         57.3400   45.4140   48.6300 O.2   852  MET852     -0.2867
    129  CB        59.3770   44.6400   46.4850 C.3   852  MET852      0.0387
    130  CG        60.0680   43.4240   47.0080 C.3   852  MET852      0.0595
    131  SD        61.4350   43.7110   48.1410 S.3   852  MET852     -0.1393
    132  CE        61.8880   45.4090   47.9260 C.3   852  MET852      0.0692
    133  N         73.3930   41.4810   50.5840 N.3   921  LEU921     -0.1245
    134  CA        72.4840   41.6720   49.4660 C.3   921  LEU921      0.1561
    135  C         71.0110   41.2140   49.7140 C.2   921  LEU921      0.2260
    136  O         70.0650   41.8300   49.2430 O.2   921  LEU921     -0.2867
    137  CB        72.9820   41.0190   48.1540 C.3   921  LEU921      0.0270
    138  CG        74.2260   41.5810   47.4450 C.3   921  LEU921      0.0019
    139  CD1       74.3980   40.9090   46.0890 C.3   921  LEU921      0.0001
    140  CD2       74.1240   43.0730   47.2010 C.3   921  LEU921      0.0001
    141  N         69.0040   43.8520   51.6250 N.3   924  LYS924     -0.1231
    142  CA        68.6930   44.9950   50.7880 C.3   924  LYS924      0.1693
    143  C         67.4380   44.8010   49.9610 C.2   924  LYS924      0.2591
    144  O         66.7080   45.7800   49.7500 O.2   924  LYS924     -0.2718
    145  CB        69.8640   45.3420   49.8780 C.3   924  LYS924      0.0285
    146  CG        70.9640   45.9440   50.6630 C.3   924  LYS924      0.0035
    147  CD        72.0500   46.5600   49.7710 C.3   924  LYS924      0.0206
    148  CE        72.9680   47.4410   50.6180 C.3   924  LYS924      0.1093
    149  NZ        73.2670   46.9130   52.0000 N.3   924  LYS924     -0.1314
    150  N         67.1230   43.5780   49.5120 N.am  925  ILE925     -0.1980
    151  CA        65.9100   43.3710   48.7520 C.3   925  ILE925      0.1595
    152  C         64.8050   42.7420   49.6070 C.2   925  ILE925      0.2287
    153  O         63.9590   42.0250   49.1060 O.2   925  ILE925     -0.2864
    154  CB        66.2080   42.5270   47.4930 C.3   925  ILE925      0.0276
    155  CG1       66.8750   41.2040   47.8430 C.3   925  ILE925      0.0022
    156  CG2       67.2270   43.2550   46.6460 C.3   925  ILE925      0.0022
    157  CD1       67.0420   40.2710   46.6350 C.3   925  ILE925      0.0001
    158  N         58.7060   48.0190   49.1470 N.3   929  TYR929     -0.1241
    159  CA        59.1400   49.0310   48.2090 C.3   929  TYR929      0.1605
    160  C         57.9250   49.2870   47.2960 C.2   929  TYR929      0.2264
    161  O         57.0790   48.3980   47.1140 O.2   929  TYR929     -0.2867
    162  CB        60.3060   48.4070   47.4440 C.3   929  TYR929      0.0534
    163  CG        60.8690   49.1480   46.2750 C.ar  929  TYR929     -0.0201
    164  CD1       61.6840   50.2730   46.4710 C.ar  929  TYR929     -0.0009
    165  CD2       60.6110   48.7240   44.9510 C.ar  929  TYR929     -0.0009
    166  CE1       62.2440   50.9810   45.3930 C.ar  929  TYR929      0.0417
    167  CE2       61.1940   49.4230   43.8390 C.ar  929  TYR929      0.0417
    168  CZ        62.0020   50.5430   44.0840 C.ar  929  TYR929      0.1957
    169  OH        62.5720   51.2150   43.0300 O.3   929  TYR929     -0.2866
@<TRIPOS>BOND
     1   108   107    2
     2   107   106    1
     3   106   105    1
     4   106   109    1
     5   109   111    1
     6   109   110    1
     7   110   112    1
     8   101   102    2
     9   101   100    1
    10    56    54    1
    11   104   103    1
    12    52    53    2
    13    52    51    1
    14    57    58    1
    15    55    54    1
    16   100   103    1
    17   100    99    1
    18    54    51    1
    19    51    50    1
    20    69    67   am
    21    19    20    1
    22    58    59    1
    23    99    96   am
    24    25    23    1
    25    23    20    1
    26    23    24    1
    27    67    68    2
    28    67    66    1
    29    97    96    2
    30    96    95    1
    31    20    21    1
    32    50    48   am
    33    60    59    2
    34    59    61   am
    35    98    95    1
    36    22    21    2
    37    95    94    1
    38    49    48    2
    39    48    47    1
    40    66    65    1
    41    61    62    1
    42    94    84   am
    43    62    65    1
    44    62    63    1
    45    47    46    1
    46    84    85    2
    47    84    83    1
    48    46    43   am
    49    63    64    2
    50    63    70   am
    51    83    86    1
    52    83    82    1
    53    70    71    1
    54    86    87    1
    55    43    44    2
    56    43    42    1
    57    89    87   ar
    58    89    91   ar
    59    87    88   ar
    60    26    27    1
    61    91    92   ar
    62    71    72    1
    63    42    45    1
    64    42    41    1
    65    73    72    2
    66    72    74   am
    67    27    30    1
    68    27    28    1
    69    30    31    1
    70    88    90   ar
    71    92    90   ar
    72    92    93    1
    73    33    31   am
    74   116   115    2
    75    74    75    1
    76    28    29    2
    77    39    38    1
    78    31    32    2
    79    76    77    2
    80    76    75    1
    81   115   114    1
    82    75    78    1
    83   117   114    1
    84   117   118    1
    85    78    79    1
    86    38    40    1
    87    38    35    1
    88   169   168    1
    89   114   113    1
    90    79    80    1
    91    37    36    2
    92   118   119   ar
    93   118   120   ar
    94    36    35    1
    95    80    81    1
    96   167   168   ar
    97   167   165   ar
    98   119   121   ar
    99    35    34    1
   100   120   122   ar
   101   168   166   ar
   102    16    14   ar
   103    16    18   ar
   104   121   123   ar
   105   122   123   ar
   106   165   163   ar
   107   123   124    1
   108    14    13   ar
   109     4     3    2
   110   166   164   ar
   111    18    17   ar
   112   125   126    1
   113   139   138    1
   114   163   164   ar
   115   163   162    1
   116     3     2    1
   117     3     8   am
   118   129   126    1
   119   129   130    1
   120   126   127    1
   121    13    12    1
   122    13    15   ar
   123   157   155    1
   124   156   154    1
   125     5     2    1
   126     5     6    1
   127     5     7    1
   128     9    12    1
   129     9     8    1
   130     9    10    1
   131    17    15   ar
   132   130   131    1
   133   161   160    2
   134     2     1    1
   135   140   138    1
   136   160   159    1
   137   162   159    1
   138   138   137    1
   139    10    11    2
   140   154   155    1
   141   154   151    1
   142   132   131    1
   143   127   128    2
   144   137   134    1
   145   159   158    1
   146   151   150    1
   147   151   152    1
   148   153   152    2
   149   136   135    2
   150   134   135    1
   151   134   133    1
   152   150   143   am
   153   144   143    2
   154   147   148    1
   155   147   146    1
   156   145   146    1
   157   145   142    1
   158   143   142    1
   159   148   149    1
   160   142   141    1
