@<TRIPOS>MOLECULE
tmp/1lshA14.pdb
 124 114 0 0 0
SMALL
GASTEIGER

@<TRIPOS>ATOM
      1  N         73.6250   31.9160   31.2960 N.3   647  GLY647     -0.1225
      2  CA        73.5530   32.4960   32.6250 C.3   647  GLY647      0.1811
      3  C         74.0940   31.5860   33.6800 C.2   647  GLY647      0.2280
      4  O         73.9830   30.3700   33.5660 O.2   647  GLY647     -0.2866
      5  N         72.8280   27.9020   32.6940 N.3   654  SER654     -0.1202
      6  CA        71.9610   27.4990   31.6290 C.3   654  SER654      0.2020
      7  C         72.0750   28.3640   30.4160 C.2   654  SER654      0.2619
      8  O         72.1140   29.6020   30.5640 O.2   654  SER654     -0.2717
      9  CB        70.4980   27.5240   32.0900 C.3   654  SER654      0.2103
     10  OG        69.6510   27.2240   30.9890 O.3   654  SER654     -0.2182
     11  N         71.8630   27.7420   29.2410 N.am  655  ASP655     -0.1959
     12  CA        71.6930   28.5760   28.0620 C.3   655  ASP655      0.1840
     13  C         70.4050   29.3020   28.2070 C.2   655  ASP655      0.2622
     14  O         69.4790   28.7850   28.8260 O.2   655  ASP655     -0.2715
     15  CB        71.6310   27.7630   26.7690 C.3   655  ASP655      0.1450
     16  CG        73.0530   27.2990   26.2550 C.2   655  ASP655      0.3671
     17  OD1       74.0780   27.8960   26.6110 O.co2 655  ASP655     -0.2456
     18  OD2       73.1520   26.3390   25.4490 O.co2 655  ASP655     -0.2456
     19  N         70.4170   30.5500   27.8160 N.am  656  ILE656     -0.1963
     20  CA        69.2230   31.3520   27.8150 C.3   656  ILE656      0.1727
     21  C         68.6250   31.3630   26.4100 C.2   656  ILE656      0.2616
     22  O         67.5360   30.8120   26.2070 O.2   656  ILE656     -0.2715
     23  CB        69.5440   32.7830   28.2660 C.3   656  ILE656      0.0290
     24  CG1       70.0870   32.7430   29.7010 C.3   656  ILE656      0.0022
     25  CG2       68.2410   33.5940   28.2840 C.3   656  ILE656      0.0023
     26  CD1       70.6860   34.0990   30.1720 C.3   656  ILE656      0.0001
     27  N         69.3630   31.8970   25.4000 N.am  657  VAL657     -0.1977
     28  CA        68.7810   31.9340   24.0670 C.3   657  VAL657      0.1596
     29  C         69.9280   31.9300   23.1170 C.2   657  VAL657      0.2287
     30  O         71.0400   32.2760   23.5160 O.2   657  VAL657     -0.2864
     31  CB        67.8440   33.1390   23.8110 C.3   657  VAL657      0.0276
     32  CG1       68.6240   34.4470   23.8880 C.3   657  VAL657      0.0022
     33  CG2       67.1760   33.0000   22.4200 C.3   657  VAL657      0.0022
     34  N         70.7150   31.9710   18.6380 N.3   659  PHE659     -0.1241
     35  CA        70.1310   32.1690   17.2950 C.3   659  PHE659      0.1605
     36  C         71.2830   31.8620   16.3560 C.2   659  PHE659      0.2264
     37  O         72.4190   32.0820   16.7420 O.2   659  PHE659     -0.2867
     38  CB        69.8030   33.6410   17.0050 C.3   659  PHE659      0.0534
     39  CG        68.8530   34.2800   17.9710 C.ar  659  PHE659     -0.0203
     40  CD1       69.3270   34.8890   19.1330 C.ar  659  PHE659     -0.0042
     41  CD2       67.4880   34.3210   17.7030 C.ar  659  PHE659     -0.0042
     42  CE1       68.4480   35.5440   20.0140 C.ar  659  PHE659     -0.0003
     43  CE2       66.6090   34.9720   18.5650 C.ar  659  PHE659     -0.0003
     44  CZ        67.0890   35.5830   19.7190 C.ar  659  PHE659     -0.0000
     45  N         66.3020   29.0170   16.4290 N.3   687  VAL687     -0.1245
     46  CA        66.3520   29.7180   17.7030 C.3   687  VAL687      0.1561
     47  C         66.3150   28.6300   18.7300 C.2   687  VAL687      0.2260
     48  O         65.5250   27.7260   18.5490 O.2   687  VAL687     -0.2867
     49  CB        65.1130   30.5860   17.9640 C.3   687  VAL687      0.0252
     50  CG1       65.2310   31.1860   19.3620 C.3   687  VAL687      0.0019
     51  CG2       65.0180   31.6830   16.9220 C.3   687  VAL687      0.0019
     52  N         66.2070   27.9100   23.0300 N.3   689  VAL689     -0.1231
     53  CA        65.9270   28.5510   24.3120 C.3   689  VAL689      0.1692
     54  C         66.2720   27.4910   25.3350 C.2   689  VAL689      0.2592
     55  O         65.8110   26.3660   25.1850 O.2   689  VAL689     -0.2718
     56  CB        64.4080   28.9230   24.3760 C.3   689  VAL689      0.0266
     57  CG1       63.9830   29.3420   25.7910 C.3   689  VAL689      0.0020
     58  CG2       64.1630   30.0510   23.3510 C.3   689  VAL689      0.0020
     59  N         67.1030   27.8450   26.3060 N.am  690  HIS690     -0.1976
     60  CA        67.6950   26.8930   27.2310 C.3   690  HIS690      0.1656
     61  C         68.3650   25.7100   26.5510 C.2   690  HIS690      0.2291
     62  O         68.3020   24.5980   27.0680 O.2   690  HIS690     -0.2864
     63  CB        66.6420   26.3340   28.1790 C.3   690  HIS690      0.0771
     64  CG        65.8480   27.3900   28.8590 C.ar  690  HIS690      0.0820
     65  ND1       66.3580   28.6440   29.1130 N.ar  690  HIS690     -0.2267
     66  CD2       64.5680   27.4060   29.2910 C.ar  690  HIS690      0.1154
     67  CE1       65.4230   29.3910   29.6680 C.ar  690  HIS690      0.1986
     68  NE2       64.3260   28.6630   29.7870 N.ar  690  HIS690     -0.2212
     69  N         63.6570   25.3840   19.3380 N.3   694  VAL694     -0.1245
     70  CA        62.2280   25.5560   19.4610 C.3   694  VAL694      0.1561
     71  C         61.6110   25.9150   18.1050 C.2   694  VAL694      0.2260
     72  O         60.4310   25.6800   17.9150 O.2   694  VAL694     -0.2867
     73  CB        61.8050   26.5790   20.5280 C.3   694  VAL694      0.0252
     74  CG1       62.4050   26.2300   21.9030 C.3   694  VAL694      0.0019
     75  CG2       62.1760   27.9630   20.0820 C.3   694  VAL694      0.0019
     76  N         56.3240   32.5250   33.2390 N.3   728  VAL728     -0.1231
     77  CA        57.6550   32.8240   32.7330 C.3   728  VAL728      0.1692
     78  C         58.6590   31.8580   33.3200 C.2   728  VAL728      0.2592
     79  O         59.5530   31.4150   32.6170 O.2   728  VAL728     -0.2718
     80  CB        58.0710   34.2060   33.1530 C.3   728  VAL728      0.0266
     81  CG1       59.5260   34.4450   32.8140 C.3   728  VAL728      0.0020
     82  CG2       57.1760   35.2230   32.4890 C.3   728  VAL728      0.0020
     83  N         58.5580   31.5810   34.6140 N.am  729  SER729     -0.1952
     84  CA        59.4260   30.5620   35.1450 C.3   729  SER729      0.1924
     85  C         58.8400   30.0960   36.4300 C.2   729  SER729      0.2314
     86  O         58.0390   30.8020   37.0750 O.2   729  SER729     -0.2863
     87  CB        60.8710   31.0280   35.3380 C.3   729  SER729      0.2116
     88  OG        60.9590   32.3710   35.7310 O.3   729  SER729     -0.2180
     89  N         60.2900   27.3150   39.3500 N.3   731  VAL731     -0.1245
     90  CA        61.3150   26.4130   39.8200 C.3   731  VAL731      0.1561
     91  C         60.8780   25.9930   41.2140 C.2   731  VAL731      0.2260
     92  O         60.4700   26.8380   42.0040 O.2   731  VAL731     -0.2867
     93  CB        62.6370   27.2090   39.8840 C.3   731  VAL731      0.0252
     94  CG1       63.7570   26.3830   40.4700 C.3   731  VAL731      0.0019
     95  CG2       62.9960   27.7280   38.5010 C.3   731  VAL731      0.0019
     96  N         60.1180   29.4370   43.2230 N.3   747  LEU747     -0.1245
     97  CA        60.2680   30.7070   42.4580 C.3   747  LEU747      0.1561
     98  C         59.2320   30.6580   41.3180 C.2   747  LEU747      0.2260
     99  O         59.2670   29.7400   40.5080 O.2   747  LEU747     -0.2867
    100  CB        61.6760   30.8900   41.8640 C.3   747  LEU747      0.0270
    101  CG        61.7500   32.1500   40.9600 C.3   747  LEU747      0.0019
    102  CD1       61.4380   33.4840   41.7020 C.3   747  LEU747      0.0001
    103  CD2       63.0950   32.2150   40.2740 C.3   747  LEU747      0.0001
    104  N         57.2400   33.0020   38.3170 N.3   749  VAL749     -0.1245
    105  CA        57.1790   34.3310   37.7650 C.3   749  VAL749      0.1561
    106  C         56.0640   34.2220   36.7120 C.2   749  VAL749      0.2260
    107  O         56.0360   33.3230   35.8800 O.2   749  VAL749     -0.2867
    108  CB        58.4570   34.7650   37.0320 C.3   749  VAL749      0.0252
    109  CG1       58.2300   36.1060   36.3790 C.3   749  VAL749      0.0019
    110  CG2       59.6840   34.8720   37.9490 C.3   749  VAL749      0.0019
    111  N         53.5720   41.8170   35.7000 N.3   792  GLN792     -0.1245
    112  CA        54.3610   40.6470   35.9810 C.3   792  GLN792      0.1566
    113  C         54.6100   40.5880   37.4730 C.2   792  GLN792      0.2260
    114  O         54.8300   41.6480   38.0770 O.2   792  GLN792     -0.2867
    115  CB        55.7360   40.7410   35.3320 C.3   792  GLN792      0.0367
    116  CG        55.7590   40.5970   33.8700 C.3   792  GLN792      0.0905
    117  CD        56.5340   39.4130   33.4140 C.2   792  GLN792      0.2608
    118  OE1       57.5710   39.0950   33.9880 O.2   792  GLN792     -0.2717
    119  NE2       56.0400   38.7380   32.3640 N.am  792  GLN792     -0.0878
    120  N         56.6880   38.2300   40.4140 N.3   794  ALA794     -0.1245
    121  CA        57.6990   37.2270   40.7660 C.3   794  ALA794      0.1562
    122  C         57.5410   36.9480   42.2770 C.2   794  ALA794      0.2260
    123  O         57.3700   37.8600   43.0910 O.2   794  ALA794     -0.2867
    124  CB        59.1130   37.6920   40.4000 C.3   794  ALA794      0.0290
@<TRIPOS>BOND
     1    36    37    2
     2    36    35    1
     3    45    46    1
     4    51    49    1
     5    38    35    1
     6    38    39    1
     7    35    34    1
     8    46    49    1
     9    46    47    1
    10    41    39   ar
    11    41    43   ar
    12    72    71    2
    13    49    50    1
    14    39    40   ar
    15    71    70    1
    16    48    47    2
    17    43    44   ar
    18    40    42   ar
    19    69    70    1
    20    70    73    1
    21    44    42   ar
    22    75    73    1
    23    73    74    1
    24    33    31    1
    25    52    53    1
    26    29    30    2
    27    29    28    1
    28    58    56    1
    29    31    32    1
    30    31    28    1
    31    28    27    1
    32    53    56    1
    33    53    54    1
    34    56    57    1
    35    55    54    2
    36    54    59   am
    37    27    21   am
    38    18    16   ar
    39    22    21    2
    40    16    17   ar
    41    16    15    1
    42    59    60    1
    43    21    20    1
    44    61    62    2
    45    61    60    1
    46    15    12    1
    47    60    63    1
    48    20    19    1
    49    20    23    1
    50    19    13   am
    51    12    13    1
    52    12    11    1
    53    63    64    1
    54    13    14    2
    55    23    25    1
    56    23    24    1
    57    64    65   ar
    58    64    66   ar
    59    65    67   ar
    60    11     7   am
    61    66    68   ar
    62    67    68   ar
    63    24    26    1
    64     7     8    2
    65     7     6    1
    66    10     9    1
    67     1     2    1
    68     6     9    1
    69     6     5    1
    70   119   117   am
    71    82    80    1
    72    79    78    2
    73     2     3    1
    74    77    80    1
    75    77    76    1
    76    77    78    1
    77    81    80    1
    78    78    83   am
    79   117   116    1
    80   117   118    2
    81     4     3    2
    82   116   115    1
    83    83    84    1
    84    84    87    1
    85    84    85    1
    86   115   112    1
    87    87    88    1
    88   111   112    1
    89   107   106    2
    90   112   113    1
    91   109   108    1
    92    85    86    2
    93   106   105    1
    94   108   105    1
    95   108   110    1
    96   113   114    2
    97   105   104    1
    98    95    93    1
    99    89    90    1
   100    90    93    1
   101    90    91    1
   102    93    94    1
   103   103   101    1
   104   124   121    1
   105   120   121    1
   106    99    98    2
   107   121   122    1
   108   101   102    1
   109   101   100    1
   110    91    92    2
   111    98    97    1
   112   100    97    1
   113   122   123    2
   114    97    96    1
