@<TRIPOS>MOLECULE
tmp/1lspA00.pdb
 164 158 0 0 0
SMALL
GASTEIGER

@<TRIPOS>ATOM
      1  N          6.9600    5.0010   15.8710 N.3    73  GLU73      -0.1245
      2  CA         6.4530    5.3800   17.1840 C.3    73  GLU73       0.1567
      3  C          5.9890    6.8220   17.2690 C.2    73  GLU73       0.2260
      4  O          4.8120    7.0040   17.5700 O.2    73  GLU73      -0.2867
      5  CB         7.5300    5.1330   18.2310 C.3    73  GLU73       0.0388
      6  CG         7.8790    3.6700   18.5210 C.3    73  GLU73       0.1160
      7  CD         6.7460    2.8080   18.8270 C.2    73  GLU73       0.3649
      8  OE1        5.6780    3.2160   19.2920 O.co2  73  GLU73      -0.2457
      9  OE2        6.8870    1.6060   18.6220 O.co2  73  GLU73      -0.2457
     10  N          2.5340   10.5670   24.1240 N.3    85  GLY85      -0.1210
     11  CA         1.7740    9.9460   23.0060 C.3    85  GLY85       0.1956
     12  C          0.3420   10.4570   23.2010 C.2    85  GLY85       0.2612
     13  O          0.0720   10.8470   24.3570 O.2    85  GLY85      -0.2717
     14  N         -0.4990   10.4370   22.1810 N.am   86  ASP86      -0.1959
     15  CA        -1.8480   11.0690   22.4550 C.3    86  ASP86       0.1840
     16  C         -2.6350   10.3240   23.5210 C.2    86  ASP86       0.2621
     17  O         -3.4040   11.1080   24.2010 O.2    86  ASP86      -0.2715
     18  CB        -2.5840   11.3300   21.1680 C.3    86  ASP86       0.1450
     19  CG        -2.6070   10.3980   20.0070 C.2    86  ASP86       0.3671
     20  OD1       -2.7120    9.1990   20.3640 O.co2  86  ASP86      -0.2456
     21  OD2       -2.5440   10.8730   18.8470 O.co2  86  ASP86      -0.2456
     22  N         -2.5150    9.0480   23.7910 N.am   87  ARG87      -0.1977
     23  CA        -3.3210    8.5850   24.9540 C.3    87  ARG87       0.1597
     24  C         -2.5260    8.7940   26.2410 C.2    87  ARG87       0.2287
     25  O         -2.9970    8.3520   27.2950 O.2    87  ARG87      -0.2864
     26  CB        -3.7650    7.1510   24.8060 C.3    87  ARG87       0.0334
     27  CG        -5.1190    6.9880   24.1310 C.3    87  ARG87       0.0492
     28  CD        -5.2970    5.6150   23.5900 C.3    87  ARG87       0.2205
     29  NE        -4.3920    4.6200   24.1700 N.pl3  87  ARG87      -0.0865
     30  CZ        -3.4220    4.0210   23.4480 C.cat  87  ARG87       0.5346
     31  NH1       -2.9770    4.5720   22.3100 N.pl3  87  ARG87       0.1354
     32  NH2       -2.9560    2.8560   23.9180 N.pl3  87  ARG87       0.1354
     33  N          0.3680    7.3150   27.5200 N.3    89  ASN89      -0.1225
     34  CA         1.1120    6.1870   28.0830 C.3    89  ASN89       0.1785
     35  C          2.5340    6.1160   27.5340 C.2    89  ASN89       0.2597
     36  O          3.4620    5.8360   28.2950 O.2    89  ASN89      -0.2718
     37  CB         0.4280    4.8730   27.7930 C.3    89  ASN89       0.1169
     38  CG        -1.0110    4.8460   28.2680 C.2    89  ASN89       0.2627
     39  OD1       -1.2980    5.2260   29.4050 O.2    89  ASN89      -0.2716
     40  ND2       -1.8740    4.3920   27.3610 N.am   89  ASN89      -0.0877
     41  N          2.7180    6.3800   26.2630 N.am   90  GLY90      -0.1957
     42  CA         4.0230    6.3760   25.5980 C.3    90  GLY90       0.1869
     43  C          4.8080    7.6420   25.7110 C.2    90  GLY90       0.2309
     44  O          4.2790    8.7130   25.5130 O.2    90  GLY90      -0.2863
     45  N          8.7890    6.0440   22.2090 N.3    95  GLN95      -0.1231
     46  CA         7.5890    5.7920   22.9190 C.3    95  GLN95       0.1698
     47  C          7.6740    4.5780   23.8630 C.2    95  GLN95       0.2592
     48  O          7.0340    3.5320   23.6600 O.2    95  GLN95      -0.2718
     49  CB         6.5490    5.6240   21.8080 C.3    95  GLN95       0.0381
     50  CG         5.9280    6.8380   21.2270 C.3    95  GLN95       0.0905
     51  CD         5.0640    7.6990   22.1210 C.2    95  GLN95       0.2608
     52  OE1        3.8430    7.5450   22.2660 O.2    95  GLN95      -0.2717
     53  NE2        5.7360    8.6780   22.7290 N.am   95  GLN95      -0.0878
     54  N          8.4440    4.6480   24.9320 N.am   96  VAL96      -0.1966
     55  CA         8.6680    3.7120   26.0280 C.3    96  VAL96       0.1727
     56  C          7.3340    3.6610   26.7600 C.2    96  VAL96       0.2616
     57  O          6.9420    4.7870   27.1350 O.2    96  VAL96      -0.2715
     58  CB         9.7620    4.0930   27.0260 C.3    96  VAL96       0.0290
     59  CG1        9.8290    3.2000   28.2670 C.3    96  VAL96       0.0023
     60  CG2       11.1550    4.1620   26.4060 C.3    96  VAL96       0.0023
     61  N          6.6760    2.5470   26.9140 N.am   97  ASP97      -0.1971
     62  CA         5.3430    2.6030   27.5940 C.3    97  ASP97       0.1709
     63  C          5.5310    2.6370   29.0990 C.2    97  ASP97       0.2293
     64  O          5.9630    1.6470   29.7030 O.2    97  ASP97      -0.2864
     65  CB         4.4700    1.4590   27.1290 C.3    97  ASP97       0.1436
     66  CG         3.1000    1.5070   27.7380 C.2    97  ASP97       0.3671
     67  OD1        2.9650    1.9710   28.8770 O.co2  97  ASP97      -0.2456
     68  OD2        2.1720    1.0940   27.0920 O.co2  97  ASP97      -0.2456
     69  N          3.5900    2.1950   31.4510 N.3    99  ARG99      -0.1231
     70  CA         2.8380    1.1980   32.2430 C.3    99  ARG99       0.1694
     71  C          3.7200   -0.0040   32.5140 C.2    99  ARG99       0.2593
     72  O          3.6420   -0.6740   33.5460 O.2    99  ARG99      -0.2718
     73  CB         1.5660    0.8960   31.4910 C.3    99  ARG99       0.0321
     74  CG         0.4800    1.9290   31.7720 C.3    99  ARG99       0.0489
     75  CD        -0.5800    1.9660   30.7240 C.3    99  ARG99       0.2205
     76  NE         0.0270    1.7670   29.4040 N.pl3  99  ARG99      -0.0865
     77  CZ        -0.7040    1.3820   28.3620 C.cat  99  ARG99       0.5346
     78  NH1       -2.0230    1.2550   28.5160 N.pl3  99  ARG99       0.1354
     79  NH2       -0.1570    1.0970   27.1800 N.pl3  99  ARG99       0.1354
     80  N          4.5860   -0.2400   31.5710 N.am  100  SER100     -0.1938
     81  CA         5.5630   -1.2750   31.4710 C.3   100  SER100      0.2055
     82  C          6.9550   -0.8670   31.8920 C.2   100  SER100      0.2643
     83  O          7.7440   -1.7310   32.3010 O.2   100  SER100     -0.2714
     84  CB         5.7750   -1.7160   30.0210 C.3   100  SER100      0.2130
     85  OG         4.6710   -2.3890   29.5260 O.3   100  SER100     -0.2179
     86  N          7.3860    0.3470   31.6240 N.am  101  HIS101     -0.1973
     87  CA         8.7200    0.8150   31.9540 C.3   101  HIS101      0.1656
     88  C          8.7340    2.2040   32.5650 C.2   101  HIS101      0.2291
     89  O          8.1410    3.1460   32.0260 O.2   101  HIS101     -0.2864
     90  CB         9.6440    0.8080   30.6940 C.3   101  HIS101      0.0771
     91  CG         9.5730   -0.5160   29.9870 C.ar  101  HIS101      0.0820
     92  ND1       10.2520   -1.6190   30.3860 N.ar  101  HIS101     -0.2267
     93  CD2        8.8100   -0.9030   28.9410 C.ar  101  HIS101      0.1154
     94  CE1        9.9830   -2.6450   29.6030 C.ar  101  HIS101      0.1986
     95  NE2        9.1170   -2.2220   28.7440 N.ar  101  HIS101     -0.2212
     96  N         15.7140   -1.8300   25.8650 N.3   119  ILE119     -0.1245
     97  CA        14.4610   -2.6010   25.8180 C.3   119  ILE119      0.1561
     98  C         14.4100   -3.3930   24.4960 C.2   119  ILE119      0.2260
     99  O         14.2460   -4.6400   24.4750 O.2   119  ILE119     -0.2867
    100  CB        13.2040   -1.7390   26.0300 C.3   119  ILE119      0.0252
    101  CG1       13.1440   -1.1070   27.4490 C.3   119  ILE119      0.0019
    102  CG2       11.9230   -2.5640   25.7890 C.3   119  ILE119      0.0019
    103  CD1       12.0150   -0.0350   27.5430 C.3   119  ILE119      0.0001
    104  N         14.4830   -7.9190   24.2320 N.3   123  PHE123     -0.1298
    105  CA        13.4820   -8.6780   23.4770 C.3   123  PHE123      0.1290
    106  C         14.1740   -9.4260   22.3350 C.3   123  PHE123      0.2013
    107  O         13.6510  -10.5340   22.1210 O.3   123  PHE123     -0.2188
    108  CB        12.3330   -7.8650   22.9010 C.3   123  PHE123      0.0480
    109  CG        11.2900   -7.3690   23.8510 C.ar  123  PHE123     -0.0206
    110  CD1       10.5370   -8.3090   24.5620 C.ar  123  PHE123     -0.0042
    111  CD2       11.0340   -5.9960   24.0230 C.ar  123  PHE123     -0.0042
    112  CE1        9.5050   -7.9090   25.4210 C.ar  123  PHE123     -0.0003
    113  CE2       10.0490   -5.5910   24.8920 C.ar  123  PHE123     -0.0003
    114  CZ         9.2730   -6.5370   25.5910 C.ar  123  PHE123     -0.0000
    115  N         15.8150  -12.2560   24.0000 N.3   126  ARG126     -0.1245
    116  CA        14.7080  -13.0560   24.5070 C.3   126  ARG126      0.1563
    117  C         14.2390  -13.9250   23.3480 C.2   126  ARG126      0.2260
    118  O         13.9470  -15.1040   23.6430 O.2   126  ARG126     -0.2867
    119  CB        13.6330  -12.1770   25.1170 C.3   126  ARG126      0.0307
    120  CG        12.8600  -12.7760   26.2800 C.3   126  ARG126      0.0489
    121  CD        11.6400  -11.9810   26.6280 C.3   126  ARG126      0.2205
    122  NE        11.8340  -10.7120   27.3240 N.pl3 126  ARG126     -0.0865
    123  CZ        11.0580  -10.1680   28.2650 C.cat 126  ARG126      0.5346
    124  NH1        9.7340  -10.3190   28.2260 N.pl3 126  ARG126      0.1354
    125  NH2       11.5250   -9.4570   29.2990 N.pl3 126  ARG126      0.1354
    126  N          8.4550   -7.8540   18.8750 N.3   146  ALA146     -0.1231
    127  CA         8.2320   -8.1180   20.2940 C.3   146  ALA146      0.1694
    128  C          8.2430   -6.7610   20.9600 C.2   146  ALA146      0.2592
    129  O          7.4140   -6.5410   21.8630 O.2   146  ALA146     -0.2718
    130  CB         9.2840   -9.1640   20.6880 C.3   146  ALA146      0.0304
    131  N          9.1020   -5.8350   20.5320 N.am  147  TYR147     -0.1962
    132  CA         9.2600   -4.4540   21.0150 C.3   147  TYR147      0.1771
    133  C          7.9130   -3.7630   21.1820 C.2   147  TYR147      0.2620
    134  O          7.6950   -2.9430   22.1040 O.2   147  TYR147     -0.2715
    135  CB        10.1730   -3.5660   20.1150 C.3   147  TYR147      0.0574
    136  CG        10.4420   -2.1720   20.5870 C.ar  147  TYR147     -0.0198
    137  CD1       11.4290   -1.8250   21.5090 C.ar  147  TYR147     -0.0009
    138  CD2        9.6520   -1.1180   20.1380 C.ar  147  TYR147     -0.0009
    139  CE1       11.6410   -0.5150   21.9300 C.ar  147  TYR147      0.0417
    140  CE2        9.7950    0.1980   20.5460 C.ar  147  TYR147      0.0417
    141  CZ        10.7920    0.4900   21.4500 C.ar  147  TYR147      0.1957
    142  OH        10.8920    1.7950   21.8910 O.3   147  TYR147     -0.2866
    143  N          6.9580   -4.0540   20.3240 N.am  148  ASN148     -0.1958
    144  CA         5.6110   -3.5590   20.3120 C.3   148  ASN148      0.1819
    145  C          4.5940   -4.4050   21.0680 C.2   148  ASN148      0.2621
    146  O          3.7220   -3.7830   21.6780 O.2   148  ASN148     -0.2715
    147  CB         5.0330   -3.5290   18.8830 C.3   148  ASN148      0.1195
    148  CG         3.7060   -2.8120   18.8440 C.2   148  ASN148      0.2630
    149  OD1        2.7640   -3.3920   18.3470 O.2   148  ASN148     -0.2716
    150  ND2        3.5260   -1.5840   19.3120 N.am  148  ASN148     -0.0877
    151  N          4.6440   -5.7110   20.9170 N.am  149  ALA149     -0.1963
    152  CA         3.5550   -6.4690   21.5850 C.3   149  ALA149      0.1728
    153  C          3.9980   -7.4810   22.6150 C.2   149  ALA149      0.2617
    154  O          3.0800   -8.1140   23.1630 O.2   149  ALA149     -0.2715
    155  CB         2.7550   -7.1300   20.4670 C.3   149  ALA149      0.0334
    156  N          5.2590   -7.6010   22.9370 N.am  150  GLY150     -0.1940
    157  CA         5.6860   -8.5700   23.9660 C.3   150  GLY150      0.2014
    158  C          6.2030   -9.7990   23.2320 C.2   150  GLY150      0.2638
    159  O          5.7070  -10.1020   22.1390 O.2   150  GLY150     -0.2714
    160  N          7.1420  -10.5160   23.8060 N.am  151  ALA151     -0.1977
    161  CA         7.7460  -11.6680   23.1060 C.3   151  ALA151      0.1597
    162  C          6.7180  -12.7620   23.0360 C.2   151  ALA151      0.2287
    163  O          6.7240  -13.5490   22.0760 O.2   151  ALA151     -0.2864
    164  CB         9.0440  -12.0790   23.7770 C.3   151  ALA151      0.0319
@<TRIPOS>BOND
     1     1     2    1
     2     2     3    1
     3     2     5    1
     4     3     4    2
     5     5     6    1
     6   149   148    2
     7     6     7    1
     8     9     7   ar
     9     7     8   ar
    10   148   147    1
    11   148   150   am
    12    21    19   ar
    13   126   127    1
    14   147   144    1
    15    19    20   ar
    16    19    18    1
    17   135   136    1
    18   135   132    1
    19   138   140   ar
    20   138   136   ar
    21   127   130    1
    22   127   128    1
    23   144   143    1
    24   144   145    1
    25   143   133   am
    26   155   152    1
    27   131   128   am
    28   131   132    1
    29   140   141   ar
    30   136   137   ar
    31   151   145   am
    32   151   152    1
    33   128   129    2
    34   132   133    1
    35   145   146    2
    36    18    15    1
    37   133   134    2
    38    50    49    1
    39    50    51    1
    40   141   142    1
    41   141   139   ar
    42   137   139   ar
    43   152   153    1
    44    49    46    1
    45   163   162    2
    46    51    52    2
    47    51    53   am
    48   107   106    1
    49   159   158    2
    50    14    15    1
    51    14    12   am
    52    45    46    1
    53    31    30    1
    54   106   105    1
    55    15    16    1
    56   153   156   am
    57   153   154    2
    58   108   105    1
    59   108   109    1
    60    46    47    1
    61   156   157    1
    62    11    12    1
    63    11    10    1
    64   162   161    1
    65   161   164    1
    66   161   160    1
    67    12    13    2
    68   158   160   am
    69   158   157    1
    70   117   118    2
    71   117   116    1
    72    30    32    1
    73    30    29    2
    74   105   104    1
    75    16    22   am
    76    16    17    2
    77    28    27    1
    78    28    29    1
    79    48    47    2
    80    22    23    1
    81   109   111   ar
    82   109   110   ar
    83    47    54   am
    84   115   116    1
    85   111   113   ar
    86    27    26    1
    87    99    98    2
    88    98    97    1
    89   116   119    1
    90   110   112   ar
    91    26    23    1
    92   113   114   ar
    93    54    55    1
    94    23    24    1
    95   119   120    1
    96   112   114   ar
    97    44    43    2
    98    42    43    1
    99    42    41    1
   100   102   100    1
   101    97    96    1
   102    97   100    1
   103    55    56    1
   104    55    58    1
   105   100   101    1
   106    24    25    2
   107    41    35   am
   108   120   121    1
   109    60    58    1
   110   121   122    1
   111    56    61   am
   112    56    57    2
   113    61    62    1
   114    58    59    1
   115    68    66   ar
   116    65    62    1
   117    65    66    1
   118    79    77    1
   119   122   123    2
   120    40    38   am
   121   101   103    1
   122    33    34    1
   123    35    34    1
   124    35    36    2
   125    62    63    1
   126    66    67   ar
   127    37    34    1
   128    37    38    1
   129   124   123    1
   130   123   125    1
   131    38    39    2
   132    77    78    1
   133    77    76    2
   134    95    93   ar
   135    95    94   ar
   136    93    91   ar
   137    63    64    2
   138    76    75    1
   139    85    84    1
   140    94    92   ar
   141    91    92   ar
   142    91    90    1
   143    84    81    1
   144    90    87    1
   145    75    74    1
   146    69    70    1
   147    81    80    1
   148    81    82    1
   149    73    74    1
   150    73    70    1
   151    80    71   am
   152    86    82   am
   153    86    87    1
   154    82    83    2
   155    87    88    1
   156    89    88    2
   157    70    71    1
   158    71    72    2
