@<TRIPOS>MOLECULE
tmp/1lssB01.pdb
 137 130 0 0 0
SMALL
GASTEIGER

@<TRIPOS>ATOM
      1  N         59.6070    8.3350  101.2320 N.3     7  GLY7       -0.1210
      2  CA        59.0810    8.7380   99.9430 C.3     7  GLY7        0.1956
      3  C         59.6790   10.0810   99.6040 C.2     7  GLY7        0.2612
      4  O         59.1160   11.1260   99.9250 O.2     7  GLY7       -0.2717
      5  N         60.8420   10.0580   98.9700 N.am    8  ILE8       -0.1965
      6  CA        61.5080   11.2980   98.6230 C.3     8  ILE8        0.1727
      7  C         61.3540   11.6140   97.1410 C.2     8  ILE8        0.2617
      8  O         62.3450   11.7740   96.4350 O.2     8  ILE8       -0.2715
      9  CB        63.0100   11.2290   98.9830 C.3     8  ILE8        0.0290
     10  CG1       63.1730   10.7100  100.4060 C.3     8  ILE8        0.0022
     11  CG2       63.6440   12.6090   98.8890 C.3     8  ILE8        0.0023
     12  CD1       64.6070   10.4080  100.7410 C.3     8  ILE8        0.0001
     13  N         60.1070   11.7030   96.6810 N.am    9  GLY9       -0.1940
     14  CA        59.8420   12.0160   95.2880 C.3     9  GLY9        0.2014
     15  C         59.4130   13.4690   95.1400 C.2     9  GLY9        0.2639
     16  O         59.9420   14.3470   95.8300 O.2     9  GLY9       -0.2714
     17  N         58.4520   13.7300   94.2590 N.am   10  ARG10      -0.1963
     18  CA        57.9600   15.0910   94.0450 C.3    10  ARG10       0.1729
     19  C         57.6150   15.8010   95.3630 C.2    10  ARG10       0.2616
     20  O         57.9100   16.9910   95.5340 O.2    10  ARG10      -0.2715
     21  CB        56.7230   15.0670   93.1380 C.3    10  ARG10       0.0348
     22  CG        56.9980   15.1850   91.6240 C.3    10  ARG10       0.0492
     23  CD        56.7450   13.8920   90.8480 C.3    10  ARG10       0.2205
     24  NE        55.4210   13.3200   91.0920 N.pl3  10  ARG10      -0.0865
     25  CZ        54.2850   13.7560   90.5570 C.cat  10  ARG10       0.5346
     26  NH1       54.2830   14.7860   89.7230 N.pl3  10  ARG10       0.1354
     27  NH2       53.1400   13.1530   90.8510 N.pl3  10  ARG10       0.1354
     28  N         56.9990   15.0770   96.2980 N.am   11  VAL11      -0.1977
     29  CA        56.6160   15.6660   97.5830 C.3    11  VAL11       0.1596
     30  C         57.6860   15.5650   98.6860 C.2    11  VAL11       0.2287
     31  O         57.9770   16.5470   99.3720 O.2    11  VAL11      -0.2864
     32  CB        55.3180   15.0190   98.1290 C.3    11  VAL11       0.0276
     33  CG1       54.9500   15.6380   99.4710 C.3    11  VAL11       0.0022
     34  CG2       54.1850   15.1940   97.1330 C.3    11  VAL11       0.0022
     35  N         63.9660    8.0890  104.0790 N.3    29  ILE29      -0.1231
     36  CA        63.8580    6.7050  103.6460 C.3    29  ILE29       0.1692
     37  C         63.3240    6.5780  102.2280 C.2    29  ILE29       0.2592
     38  O         62.3180    7.2060  101.8840 O.2    29  ILE29      -0.2718
     39  CB        62.8690    5.8850  104.5090 C.3    29  ILE29       0.0266
     40  CG1       63.2920    5.8700  105.9780 C.3    29  ILE29       0.0019
     41  CG2       62.7890    4.4630  103.9590 C.3    29  ILE29       0.0020
     42  CD1       62.2620    5.1790  106.8800 C.3    29  ILE29       0.0001
     43  N         63.9800    5.7610  101.4060 N.am   30  ASP30      -0.1960
     44  CA        63.4750    5.5120  100.0620 C.3    30  ASP30       0.1840
     45  C         63.9580    4.1620   99.5640 C.2    30  ASP30       0.2622
     46  O         65.1320    3.8090   99.6910 O.2    30  ASP30      -0.2715
     47  CB        63.8670    6.6000   99.0650 C.3    30  ASP30       0.1450
     48  CG        62.8980    6.6620   97.8670 C.2    30  ASP30       0.3671
     49  OD1       62.0230    7.5510   97.8480 O.co2  30  ASP30      -0.2456
     50  OD2       62.9910    5.8080   96.9570 O.co2  30  ASP30      -0.2456
     51  N         63.0300    3.4080   98.9920 N.am   31  ILE31      -0.1963
     52  CA        63.3170    2.0760   98.4850 C.3    31  ILE31       0.1727
     53  C         64.1490    2.1020   97.1940 C.2    31  ILE31       0.2616
     54  O         64.7050    1.0850   96.7770 O.2    31  ILE31      -0.2715
     55  CB        62.0000    1.3370   98.2290 C.3    31  ILE31       0.0290
     56  CG1       62.2620   -0.1520   98.0020 C.3    31  ILE31       0.0022
     57  CG2       61.3060    1.9470   97.0240 C.3    31  ILE31       0.0023
     58  CD1       60.9930   -0.9930   97.9820 C.3    31  ILE31       0.0001
     59  N         64.2490    3.2700   96.5730 N.am   32  ASP32      -0.1971
     60  CA        64.9910    3.3930   95.3280 C.3    32  ASP32       0.1709
     61  C         66.3870    3.9800   95.5370 C.2    32  ASP32       0.2293
     62  O         66.5350    5.1290   95.9470 O.2    32  ASP32      -0.2864
     63  CB        64.1840    4.2430   94.3530 C.3    32  ASP32       0.1436
     64  CG        64.7000    4.1500   92.9450 C.2    32  ASP32       0.3671
     65  OD1       65.7930    4.6860   92.6680 O.co2  32  ASP32      -0.2456
     66  OD2       64.0040    3.5250   92.1150 O.co2  32  ASP32      -0.2456
     67  N         67.2010    7.3780   94.0270 N.3    35  ILE35      -0.1245
     68  CA        66.5600    8.4820   94.7300 C.3    35  ILE35       0.1561
     69  C         67.3310    8.7820   96.0190 C.2    35  ILE35       0.2260
     70  O         67.4880    9.9360   96.4010 O.2    35  ILE35      -0.2867
     71  CB        65.0550    8.1660   95.0340 C.3    35  ILE35       0.0252
     72  CG1       64.1830    8.5890   93.8550 C.3    35  ILE35       0.0019
     73  CG2       64.5700    8.9370   96.2440 C.3    35  ILE35       0.0019
     74  CD1       64.6720    8.1120   92.5110 C.3    35  ILE35       0.0001
     75  N         65.6500    1.6300  101.8840 N.3    50  GLY50      -0.1210
     76  CA        64.8510    0.4980  102.3140 C.3    50  GLY50       0.1956
     77  C         63.3590    0.6710  102.0870 C.2    50  GLY50       0.2612
     78  O         62.8840    1.7120  101.6270 O.2    50  GLY50      -0.2717
     79  N         62.6230   -0.3780  102.4290 N.am   51  ASP51      -0.1959
     80  CA        61.1690   -0.4260  102.2970 C.3    51  ASP51       0.1840
     81  C         60.5790    0.0070  103.6310 C.2    51  ASP51       0.2622
     82  O         60.6590   -0.7440  104.6000 O.2    51  ASP51      -0.2715
     83  CB        60.7420   -1.8620  101.9960 C.3    51  ASP51       0.1450
     84  CG        59.2590   -1.9910  101.7560 C.2    51  ASP51       0.3671
     85  OD1       58.4770   -1.2090  102.3380 O.co2  51  ASP51      -0.2456
     86  OD2       58.8810   -2.8990  100.9890 O.co2  51  ASP51      -0.2456
     87  N         59.9840    1.1990  103.6840 N.am   52  CYS52      -0.1968
     88  CA        59.4040    1.7130  104.9190 C.3    52  CYS52       0.1712
     89  C         58.3100    0.8390  105.5460 C.2    52  CYS52       0.2296
     90  O         57.8290    1.1490  106.6330 O.2    52  CYS52      -0.2864
     91  CB        58.8620    3.1330  104.7170 C.3    52  CYS52       0.0983
     92  SG        57.3480    3.3000  103.6950 S.3    52  CYS52      -0.0798
     93  N         55.1480   10.0250  102.5580 N.3    72  VAL72      -0.1231
     94  CA        54.6560   10.6710  101.3490 C.3    72  VAL72       0.1692
     95  C         55.0800    9.8930  100.1120 C.2    72  VAL72       0.2593
     96  O         55.4260   10.4420   99.0680 O.2    72  VAL72      -0.2718
     97  CB        55.1240   12.1590  101.2620 C.3    72  VAL72       0.0266
     98  CG1       54.4380   12.9820  102.3290 C.3    72  VAL72       0.0020
     99  CG2       56.6210   12.2510  101.4370 C.3    72  VAL72       0.0020
    100  N         55.0560    8.5810  100.2670 N.am   73  THR73      -0.1939
    101  CA        55.3570    7.6540   99.1940 C.3    73  THR73       0.2028
    102  C         54.2050    7.8130   98.1770 C.2    73  THR73       0.2643
    103  O         53.1570    8.3890   98.4980 O.2    73  THR73      -0.2714
    104  CB        55.3810    6.2170   99.7730 C.3    73  THR73       0.1808
    105  OG1       56.7340    5.8190  100.0510 O.3    73  THR73      -0.2208
    106  CG2       54.7190    5.2440   98.8500 C.3    73  THR73       0.0379
    107  N         54.3970    7.3220   96.9560 N.am   74  GLY74      -0.1939
    108  CA        53.3440    7.4300   95.9620 C.3    74  GLY74       0.2014
    109  C         52.2610    6.3740   96.1260 C.2    74  GLY74       0.2638
    110  O         51.2430    6.4210   95.4470 O.2    74  GLY74      -0.2714
    111  N         52.4830    5.4150   97.0190 N.am   75  LYS75      -0.1977
    112  CA        51.5240    4.3480   97.2670 C.3    75  LYS75       0.1596
    113  C         50.7240    4.5860   98.5390 C.2    75  LYS75       0.2287
    114  O         51.2530    4.5970   99.6480 O.2    75  LYS75      -0.2864
    115  CB        52.2300    2.9930   97.3630 C.3    75  LYS75       0.0298
    116  CG        52.9090    2.5310   96.0710 C.3    75  LYS75       0.0038
    117  CD        53.6220    1.1970   96.2800 C.3    75  LYS75       0.0206
    118  CE        54.6840    0.9070   95.2030 C.3    75  LYS75       0.1093
    119  NZ        54.1430    0.8110   93.8120 N.3    75  LYS75      -0.1314
    120  N         50.9550    1.9920  101.4460 N.3    78  VAL78      -0.1245
    121  CA        52.3010    1.8990  101.9790 C.3    78  VAL78       0.1561
    122  C         52.3820    3.0240  103.0070 C.2    78  VAL78       0.2260
    123  O         52.8980    2.8480  104.1100 O.2    78  VAL78      -0.2867
    124  CB        53.3580    2.1340  100.8900 C.3    78  VAL78       0.0252
    125  CG1       54.6680    2.6290  101.5160 C.3    78  VAL78       0.0019
    126  CG2       53.5850    0.8440  100.1130 C.3    78  VAL78       0.0019
    127  N         50.2830   10.6490  103.2330 N.3    97  ARG97      -0.1245
    128  CA        49.7360   11.0950  101.9610 C.3    97  ARG97       0.1563
    129  C         48.7230   10.0700  101.4610 C.2    97  ARG97       0.2260
    130  O         48.8480    8.8620  101.7100 O.2    97  ARG97      -0.2867
    131  CB        50.8700   11.2390  100.9600 C.3    97  ARG97       0.0307
    132  CG        50.4430   11.4810   99.5450 C.3    97  ARG97       0.0489
    133  CD        51.6820   11.3990   98.6790 C.3    97  ARG97       0.2205
    134  NE        51.4590   11.6380   97.2640 N.pl3  97  ARG97      -0.0865
    135  CZ        52.4460   11.6710   96.3760 C.cat  97  ARG97       0.5346
    136  NH1       53.6870   11.4720   96.7870 N.pl3  97  ARG97       0.1354
    137  NH2       52.2070   11.9260   95.0950 N.pl3  97  ARG97       0.1354
@<TRIPOS>BOND
     1    26    25    1
     2    25    27    1
     3    25    24    2
     4    23    24    1
     5    23    22    1
     6    22    21    1
     7    66    64   ar
     8    74    72    1
     9    65    64   ar
    10    64    63    1
    11    21    18    1
    12   119   118    1
    13    72    71    1
    14    67    68    1
    15    18    17    1
    16    18    19    1
    17    17    15   am
    18    63    60    1
    19    68    71    1
    20    68    69    1
    21    71    73    1
    22   137   135    1
    23    15    14    1
    24    15    16    2
    25   118   117    1
    26    14    13    1
    27    60    61    1
    28    60    59    1
    29    19    20    2
    30    19    28   am
    31   110   109    2
    32    61    62    2
    33   108   109    1
    34   108   107    1
    35    69    70    2
    36   116   117    1
    37   116   115    1
    38   109   111   am
    39    28    29    1
    40   135   136    1
    41   135   134    2
    42     8     7    2
    43    59    53   am
    44    13     7   am
    45    54    53    2
    46   107   102   am
    47    50    48   ar
    48   111   112    1
    49    57    55    1
    50    34    32    1
    51     7     6    1
    52    53    52    1
    53   134   133    1
    54   112   115    1
    55   112   113    1
    56    29    32    1
    57    29    30    1
    58    49    48   ar
    59    48    47    1
    60    58    56    1
    61    56    55    1
    62    32    33    1
    63   102   103    2
    64   102   101    1
    65    55    52    1
    66    52    51    1
    67   113   114    2
    68     6     5    1
    69     6     9    1
    70   133   132    1
    71    30    31    2
    72   106   104    1
    73    11     9    1
    74     5     3   am
    75     9    10    1
    76    51    45   am
    77    47    44    1
    78    96    95    2
    79   101   104    1
    80   101   100    1
    81   132   131    1
    82    45    46    2
    83    45    44    1
    84     3     4    2
    85     3     2    1
    86   104   105    1
    87     2     1    1
    88    44    43    1
    89    95   100   am
    90    95    94    1
    91   126   124    1
    92    10    12    1
    93   124   125    1
    94   124   121    1
    95   131   128    1
    96    86    84   ar
    97    97    94    1
    98    97    99    1
    99    97    98    1
   100    94    93    1
   101    43    37   am
   102   120   121    1
   103   129   130    2
   104   129   128    1
   105    78    77    2
   106    84    83    1
   107    84    85   ar
   108    38    37    2
   109    75    76    1
   110   128   127    1
   111   121   122    1
   112    83    80    1
   113    77    76    1
   114    77    79   am
   115    37    36    1
   116    80    79    1
   117    80    81    1
   118   122   123    2
   119    81    87   am
   120    81    82    2
   121    36    35    1
   122    36    39    1
   123    87    88    1
   124    92    91    1
   125    41    39    1
   126    39    40    1
   127    91    88    1
   128    88    89    1
   129    89    90    2
   130    40    42    1
