@<TRIPOS>MOLECULE
tmp/1lstA00.pdb
 113 106 0 0 0
SMALL
GASTEIGER

@<TRIPOS>ATOM
      1  N         27.8200   62.9920   49.9540 N.3    11  ASP11      -0.1239
      2  CA        28.3950   61.7250   50.3570 C.3    11  ASP11       0.1674
      3  C         29.1840   61.2680   49.1350 C.2    11  ASP11       0.2266
      4  O         28.6560   60.8360   48.0890 O.2    11  ASP11      -0.2867
      5  CB        27.2550   60.7710   50.7040 C.3    11  ASP11       0.1410
      6  CG        27.6130   59.2920   50.6610 C.2    11  ASP11       0.3668
      7  OD1       28.7620   58.9230   50.8850 O.co2  11  ASP11      -0.2456
      8  OD2       26.7210   58.5080   50.3840 O.co2  11  ASP11      -0.2456
      9  N         29.4200   57.6270   45.8120 N.3    14  TYR14      -0.1241
     10  CA        28.3660   57.2680   44.8760 C.3    14  TYR14       0.1605
     11  C         28.7370   57.7210   43.4550 C.2    14  TYR14       0.2264
     12  O         28.1350   58.6170   42.8480 O.2    14  TYR14      -0.2867
     13  CB        27.1110   57.9240   45.3810 C.3    14  TYR14       0.0534
     14  CG        25.8620   57.0690   45.3350 C.ar   14  TYR14      -0.0201
     15  CD1       25.7330   55.9160   46.1020 C.ar   14  TYR14      -0.0009
     16  CD2       24.8230   57.4870   44.5340 C.ar   14  TYR14      -0.0009
     17  CE1       24.5430   55.2000   46.0790 C.ar   14  TYR14       0.0417
     18  CE2       23.6350   56.7720   44.5000 C.ar   14  TYR14       0.0417
     19  CZ        23.5000   55.6400   45.2900 C.ar   14  TYR14       0.1957
     20  OH        22.2800   54.9720   45.2750 O.3    14  TYR14      -0.2866
     21  N         25.9720   59.5860   54.1290 N.3    52  PHE52      -0.1241
     22  CA        24.6430   59.8910   53.6540 C.3    52  PHE52       0.1605
     23  C         23.5850   60.0920   54.7450 C.2    52  PHE52       0.2264
     24  O         22.8070   61.0400   54.6700 O.2    52  PHE52      -0.2867
     25  CB        24.1750   58.7870   52.7170 C.3    52  PHE52       0.0534
     26  CG        22.8910   59.1850   51.9810 C.ar   52  PHE52      -0.0203
     27  CD1       22.9450   60.1470   50.9710 C.ar   52  PHE52      -0.0042
     28  CD2       21.6750   58.6170   52.3230 C.ar   52  PHE52      -0.0042
     29  CE1       21.7950   60.5170   50.3120 C.ar   52  PHE52      -0.0003
     30  CE2       20.5260   59.0020   51.6500 C.ar   52  PHE52      -0.0003
     31  CZ        20.5880   59.9350   50.6370 C.ar   52  PHE52      -0.0000
     32  N         23.4600   65.2530   46.6390 N.3    69  SER69      -0.1202
     33  CA        24.0090   63.9320   46.8950 C.3    69  SER69       0.2020
     34  C         23.0540   62.8670   46.3700 C.2    69  SER69       0.2619
     35  O         22.7230   61.9080   47.0710 O.2    69  SER69      -0.2717
     36  CB        24.2220   63.8460   48.4440 C.3    69  SER69       0.2103
     37  OG        25.1370   62.8530   48.8940 O.3    69  SER69      -0.2182
     38  N         22.5580   63.0080   45.1330 N.am   70  SER70      -0.1937
     39  CA        21.5560   62.1130   44.5580 C.3    70  SER70       0.2055
     40  C         20.3620   61.9280   45.5080 C.2    70  SER70       0.2643
     41  O         19.7820   60.8360   45.6260 O.2    70  SER70      -0.2714
     42  CB        22.1830   60.7260   44.2140 C.3    70  SER70       0.2130
     43  OG        23.2990   60.8400   43.3250 O.3    70  SER70      -0.2179
     44  N         19.9510   63.0480   46.1480 N.am   71  LEU71      -0.1963
     45  CA        18.8900   63.0120   47.1490 C.3    71  LEU71       0.1728
     46  C         17.5150   63.0020   46.5160 C.2    71  LEU71       0.2616
     47  O         17.0800   64.0150   45.9860 O.2    71  LEU71      -0.2715
     48  CB        19.0230   64.2190   48.1050 C.3    71  LEU71       0.0311
     49  CG        18.1480   64.2090   49.3650 C.3    71  LEU71       0.0022
     50  CD1       18.6840   63.1220   50.3330 C.3    71  LEU71       0.0001
     51  CD2       18.1620   65.6120   50.0320 C.3    71  LEU71       0.0001
     52  N         16.8390   61.8510   46.5140 N.am   72  SER72      -0.1950
     53  CA        15.5190   61.7300   45.9230 C.3    72  SER72       0.1924
     54  C         14.4740   62.5760   46.6350 C.2    72  SER72       0.2314
     55  O         14.4680   62.6510   47.8600 O.2    72  SER72      -0.2863
     56  CB        15.0820   60.2770   45.9470 C.3    72  SER72       0.2116
     57  OG        15.8870   59.5330   45.0350 O.3    72  SER72      -0.2180
     58  N         10.4500   62.9710   52.8510 N.3    77  ARG77      -0.1245
     59  CA        11.4290   64.0310   53.0070 C.3    77  ARG77       0.1563
     60  C         10.8640   65.4520   52.8880 C.2    77  ARG77       0.2260
     61  O         11.3450   66.3520   53.5820 O.2    77  ARG77      -0.2867
     62  CB        12.5520   63.8170   51.9810 C.3    77  ARG77       0.0307
     63  CG        13.4640   62.6970   52.4320 C.3    77  ARG77       0.0489
     64  CD        14.3800   62.3190   51.3070 C.3    77  ARG77       0.2205
     65  NE        15.2570   61.2470   51.7240 N.pl3  77  ARG77      -0.0865
     66  CZ        15.9970   60.5510   50.8670 C.cat  77  ARG77       0.5346
     67  NH1       15.9560   60.8320   49.5540 N.pl3  77  ARG77       0.1354
     68  NH2       16.7970   59.5830   51.3430 N.pl3  77  ARG77       0.1354
     69  N         22.1600   51.0700   51.4990 N.3   117  LEU117     -0.1245
     70  CA        22.7990   52.2080   52.1650 C.3   117  LEU117      0.1561
     71  C         21.9130   52.7190   53.2970 C.2   117  LEU117      0.2260
     72  O         20.7350   53.0010   53.0900 O.2   117  LEU117     -0.2867
     73  CB        23.0490   53.3240   51.1170 C.3   117  LEU117      0.0270
     74  CG        23.6050   54.6790   51.5580 C.3   117  LEU117      0.0019
     75  CD1       24.9950   54.5280   52.1520 C.3   117  LEU117      0.0001
     76  CD2       23.6570   55.5980   50.3190 C.3   117  LEU117      0.0001
     77  N         18.9640   55.6270   53.0540 N.3   120  SER120     -0.1202
     78  CA        18.4240   55.7550   51.7100 C.3   120  SER120      0.2020
     79  C         16.9740   55.3460   51.5820 C.2   120  SER120      0.2619
     80  O         16.4010   54.6470   52.4330 O.2   120  SER120     -0.2717
     81  CB        19.2790   54.9280   50.7490 C.3   120  SER120      0.2103
     82  OG        19.1570   53.5360   51.0510 O.3   120  SER120     -0.2182
     83  N         16.3710   55.7250   50.4640 N.am  121  THR121     -0.1938
     84  CA        15.0210   55.2840   50.1340 C.3   121  THR121      0.2028
     85  C         15.0480   53.7460   49.9310 C.2   121  THR121      0.2642
     86  O         14.0780   53.0650   50.2560 O.2   121  THR121     -0.2714
     87  CB        14.5470   55.9530   48.8580 C.3   121  THR121      0.1808
     88  OG1       15.5420   55.6540   47.8920 O.3   121  THR121     -0.2208
     89  CG2       14.3760   57.4640   48.9840 C.3   121  THR121      0.0379
     90  N         16.1640   53.1720   49.4390 N.am  122  GLN122     -0.1976
     91  CA        16.3160   51.7210   49.2930 C.3   122  GLN122      0.1601
     92  C         16.2740   51.0070   50.6410 C.2   122  GLN122      0.2287
     93  O         15.6360   49.9600   50.7250 O.2   122  GLN122     -0.2864
     94  CB        17.6410   51.3810   48.6150 C.3   122  GLN122      0.0394
     95  CG        17.7190   51.7610   47.1340 C.3   122  GLN122      0.0908
     96  CD        18.1950   53.1860   46.8640 C.2   122  GLN122      0.2608
     97  OE1       18.7670   53.8820   47.7140 O.2   122  GLN122     -0.2717
     98  NE2       17.9800   53.6390   45.6470 N.am  122  GLN122     -0.0878
     99  N         20.6090   53.1860   43.5270 N.3   161  ASP161     -0.1239
    100  CA        20.1790   53.8110   42.2820 C.3   161  ASP161      0.1674
    101  C         20.8550   53.1060   41.0950 C.2   161  ASP161      0.2266
    102  O         22.0620   52.8180   41.0680 O.2   161  ASP161     -0.2867
    103  CB        20.5500   55.3020   42.2710 C.3   161  ASP161      0.1410
    104  CG        19.7990   56.1950   43.2640 C.2   161  ASP161      0.3668
    105  OD1       18.7840   55.7990   43.8550 O.co2 161  ASP161     -0.2456
    106  OD2       20.2460   57.3260   43.4230 O.co2 161  ASP161     -0.2456
    107  N         15.9270   63.5070   41.7450 N.3   195  THR195     -0.1218
    108  CA        16.7580   64.0090   42.8360 C.3   195  THR195      0.1862
    109  C         16.7630   65.5380   42.8220 C.2   195  THR195      0.2287
    110  O         16.4990   66.1230   41.7500 O.2   195  THR195     -0.2866
    111  CB        18.2270   63.5070   42.7190 C.3   195  THR195      0.1770
    112  OG1       18.8770   64.0970   41.5880 O.3   195  THR195     -0.2211
    113  CG2       18.2270   61.9670   42.6380 C.3   195  THR195      0.0375
@<TRIPOS>BOND
     1   102   101    2
     2   101   100    1
     3   112   111    1
     4   107   108    1
     5   110   109    2
     6   103   100    1
     7   103   104    1
     8   100    99    1
     9   113   111    1
    10   111   108    1
    11   109   108    1
    12    12    11    2
    13   104   106   ar
    14   104   105   ar
    15    43    42    1
    16    11    10    1
    17    42    39    1
    18    18    16   ar
    19    18    19   ar
    20    16    14   ar
    21    39    38    1
    22    39    40    1
    23    10    13    1
    24    10     9    1
    25    57    56    1
    26    38    34   am
    27    20    19    1
    28    19    17   ar
    29    14    13    1
    30    14    15   ar
    31    40    41    2
    32    40    44   am
    33    98    96   am
    34    53    56    1
    35    53    52    1
    36    53    54    1
    37    47    46    2
    38    17    15   ar
    39    44    45    1
    40    34    33    1
    41    34    35    2
    42    52    46   am
    43    46    45    1
    44    54    55    2
    45    32    33    1
    46    96    95    1
    47    96    97    2
    48    33    36    1
    49    95    94    1
    50    45    48    1
    51    88    87    1
    52     4     3    2
    53    48    49    1
    54    36    37    1
    55    94    91    1
    56    87    89    1
    57    87    84    1
    58     3     2    1
    59    91    90    1
    60    91    92    1
    61    49    51    1
    62    49    50    1
    63    90    85   am
    64    67    66    1
    65    85    84    1
    66    85    86    2
    67     1     2    1
    68    84    83    1
    69    29    31   ar
    70    29    27   ar
    71    76    74    1
    72     2     5    1
    73     8     6   ar
    74    83    79   am
    75    31    30   ar
    76    92    93    2
    77     6     5    1
    78     6     7   ar
    79    81    82    1
    80    81    78    1
    81    66    68    1
    82    66    65    2
    83    27    26   ar
    84    73    74    1
    85    73    70    1
    86    64    65    1
    87    64    63    1
    88    69    70    1
    89    74    75    1
    90    79    78    1
    91    79    80    2
    92    30    28   ar
    93    78    77    1
    94    26    28   ar
    95    26    25    1
    96    62    63    1
    97    62    59    1
    98    70    71    1
    99    25    22    1
   100    58    59    1
   101    60    59    1
   102    60    61    2
   103    72    71    2
   104    22    21    1
   105    22    23    1
   106    24    23    2
