@<TRIPOS>MOLECULE
tmp/1lsuB00.pdb
 207 201 0 0 0
SMALL
GASTEIGER

@<TRIPOS>ATOM
      1  N         52.3590   34.1350   38.4780 N.3     6  ILE6       -0.1231
      2  CA        53.5510   34.9340   38.6920 C.3     6  ILE6        0.1692
      3  C         53.3820   36.1770   37.8490 C.2     6  ILE6        0.2593
      4  O         53.3820   36.0880   36.6230 O.2     6  ILE6       -0.2718
      5  CB        54.7880   34.1920   38.2100 C.3     6  ILE6        0.0266
      6  CG1       54.9710   32.9150   39.0340 C.3     6  ILE6        0.0019
      7  CG2       55.9990   35.0930   38.3180 C.3     6  ILE6        0.0020
      8  CD1       56.1350   32.0550   38.5950 C.3     6  ILE6        0.0001
      9  N         53.2330   37.3290   38.4890 N.am    7  GLY7       -0.1942
     10  CA        53.0650   38.5560   37.7330 C.3     7  GLY7        0.2014
     11  C         51.6520   39.0530   37.9330 C.2     7  GLY7        0.2639
     12  O         50.6890   38.4060   37.5030 O.2     7  GLY7       -0.2714
     13  N         51.5270   40.2080   38.5790 N.am    8  LEU8       -0.1963
     14  CA        50.2210   40.7560   38.8760 C.3     8  LEU8        0.1728
     15  C         49.9020   42.1220   38.2810 C.2     8  LEU8        0.2617
     16  O         49.7980   43.1270   38.9950 O.2     8  LEU8       -0.2715
     17  CB        50.0250   40.7960   40.3920 C.3     8  LEU8        0.0311
     18  CG        50.5060   39.5690   41.1760 C.3     8  LEU8        0.0022
     19  CD1       50.0500   39.7250   42.6190 C.3     8  LEU8        0.0001
     20  CD2       49.9580   38.2670   40.5790 C.3     8  LEU8        0.0001
     21  N         49.7560   42.1520   36.9620 N.am    9  GLY9       -0.1940
     22  CA        49.3700   43.3780   36.2850 C.3     9  GLY9        0.2014
     23  C         47.8780   43.2190   35.9770 C.2     9  GLY9        0.2639
     24  O         47.1950   42.3800   36.5980 O.2     9  GLY9       -0.2714
     25  N         47.3680   43.9950   35.0200 N.am   10  ARG10      -0.1963
     26  CA        45.9520   43.9040   34.6510 C.3    10  ARG10       0.1729
     27  C         45.5320   42.4440   34.4170 C.2    10  ARG10       0.2616
     28  O         44.5010   41.9850   34.9280 O.2    10  ARG10      -0.2715
     29  CB        45.6710   44.7250   33.3810 C.3    10  ARG10       0.0348
     30  CG        46.5590   45.9430   33.1950 C.3    10  ARG10       0.0492
     31  CD        46.2260   46.7140   31.9130 C.3    10  ARG10       0.2205
     32  NE        47.0930   47.8840   31.7370 N.pl3  10  ARG10      -0.0865
     33  CZ        47.8940   48.0940   30.6900 C.cat  10  ARG10       0.5346
     34  NH1       47.9550   47.2060   29.6930 N.pl3  10  ARG10       0.1354
     35  NH2       48.6330   49.2010   30.6350 N.pl3  10  ARG10       0.1354
     36  N         46.3470   41.7300   33.6490 N.am   11  PHE11      -0.1974
     37  CA        46.1070   40.3370   33.3010 C.3    11  PHE11       0.1639
     38  C         46.3090   39.3800   34.4760 C.2    11  PHE11       0.2290
     39  O         45.3760   38.7080   34.9090 O.2    11  PHE11      -0.2864
     40  CB        47.0410   39.9610   32.1450 C.3    11  PHE11       0.0560
     41  CG        46.8940   38.5460   31.6560 C.ar   11  PHE11      -0.0200
     42  CD1       45.7200   38.1220   31.0300 C.ar   11  PHE11      -0.0042
     43  CD2       47.9580   37.6540   31.7690 C.ar   11  PHE11      -0.0042
     44  CE1       45.6110   36.8380   30.5150 C.ar   11  PHE11      -0.0003
     45  CE2       47.8670   36.3670   31.2580 C.ar   11  PHE11      -0.0003
     46  CZ        46.6870   35.9570   30.6290 C.ar   11  PHE11      -0.0000
     47  N         52.4340   35.3260   43.2740 N.3    29  VAL29      -0.1231
     48  CA        53.6830   36.0530   43.5260 C.3    29  VAL29       0.1692
     49  C         53.9090   37.2490   42.6100 C.2    29  VAL29       0.2592
     50  O         53.3550   37.3240   41.5180 O.2    29  VAL29      -0.2718
     51  CB        54.9130   35.0940   43.4480 C.3    29  VAL29       0.0266
     52  CG1       54.5980   33.9070   42.5520 C.3    29  VAL29       0.0020
     53  CG2       56.1400   35.8320   42.9360 C.3    29  VAL29       0.0020
     54  N         54.7220   38.1860   43.0850 N.am   30  ASP30      -0.1960
     55  CA        55.0690   39.3960   42.3480 C.3    30  ASP30       0.1840
     56  C         56.2590   40.0310   43.0770 C.2    30  ASP30       0.2622
     57  O         56.4090   39.8280   44.2830 O.2    30  ASP30      -0.2715
     58  CB        53.8720   40.3480   42.3130 C.3    30  ASP30       0.1450
     59  CG        54.1350   41.5810   41.4740 C.2    30  ASP30       0.3671
     60  OD1       53.3260   41.8710   40.5700 O.co2  30  ASP30      -0.2456
     61  OD2       55.1510   42.2630   41.7170 O.co2  30  ASP30      -0.2456
     62  N         57.1070   40.7880   42.3800 N.am   31  ILE31      -0.1963
     63  CA        58.2610   41.3800   43.0630 C.3    31  ILE31       0.1727
     64  C         57.9440   42.5470   43.9800 C.2    31  ILE31       0.2616
     65  O         58.3590   42.5460   45.1350 O.2    31  ILE31      -0.2715
     66  CB        59.4040   41.8440   42.1000 C.3    31  ILE31       0.0290
     67  CG1       58.8370   42.7030   40.9730 C.3    31  ILE31       0.0022
     68  CG2       60.1950   40.6480   41.6040 C.3    31  ILE31       0.0023
     69  CD1       59.8870   43.4860   40.2370 C.3    31  ILE31       0.0001
     70  N         57.2280   43.5490   43.4850 N.am   32  ASN32      -0.1972
     71  CA        56.9120   44.6890   44.3380 C.3    32  ASN32       0.1688
     72  C         55.6530   44.4270   45.1630 C.2    32  ASN32       0.2292
     73  O         54.5730   44.1960   44.6190 O.2    32  ASN32      -0.2864
     74  CB        56.7650   45.9650   43.5110 C.3    32  ASN32       0.1181
     75  CG        55.5860   45.9220   42.5930 C.2    32  ASN32       0.2629
     76  OD1       54.7220   46.7870   42.6520 O.2    32  ASN32      -0.2716
     77  ND2       55.5360   44.9160   41.7320 N.am   32  ASN32      -0.0877
     78  N         51.8110   45.4070   44.6810 N.3    35  LYS35      -0.1245
     79  CA        51.0400   44.4880   43.8660 C.3    35  LYS35       0.1561
     80  C         50.5930   43.3270   44.7480 C.2    35  LYS35       0.2260
     81  O         49.4070   42.9700   44.7690 O.2    35  LYS35      -0.2867
     82  CB        51.9100   43.9540   42.7260 C.3    35  LYS35       0.0271
     83  CG        51.6330   44.5770   41.3700 C.3    35  LYS35       0.0035
     84  CD        51.7690   46.0810   41.3950 C.3    35  LYS35       0.0206
     85  CE        51.4220   46.6720   40.0500 C.3    35  LYS35       0.1093
     86  NZ        50.0750   46.2440   39.6100 N.3    35  LYS35      -0.1314
     87  N         58.1050   38.2460   45.6360 N.3    49  ALA49      -0.1231
     88  CA        59.2840   37.5150   45.2090 C.3    49  ALA49       0.1694
     89  C         59.7410   37.8630   43.8090 C.2    49  ALA49       0.2592
     90  O         59.1650   38.7090   43.1350 O.2    49  ALA49      -0.2718
     91  CB        59.0280   36.0100   45.3100 C.3    49  ALA49       0.0304
     92  N         60.7980   37.1810   43.3910 N.am   50  ASN50      -0.1960
     93  CA        61.3910   37.3730   42.0830 C.3    50  ASN50       0.1819
     94  C         61.5180   35.9890   41.4660 C.2    50  ASN50       0.2621
     95  O         62.4590   35.2490   41.7670 O.2    50  ASN50      -0.2715
     96  CB        62.7690   38.0000   42.2360 C.3    50  ASN50       0.1195
     97  CG        63.2260   38.6890   40.9880 C.2    50  ASN50       0.2630
     98  OD1       62.9640   39.8730   40.7910 O.2    50  ASN50      -0.2716
     99  ND2       63.9020   37.9510   40.1220 N.am   50  ASN50      -0.0877
    100  N         60.5580   35.6380   40.6130 N.am   51  ALA51      -0.1963
    101  CA        60.5440   34.3260   39.9670 C.3    51  ALA51       0.1728
    102  C         61.7440   34.1400   39.0460 C.2    51  ALA51       0.2616
    103  O         62.0370   33.0350   38.5770 O.2    51  ALA51      -0.2715
    104  CB        59.2440   34.1500   39.1860 C.3    51  ALA51       0.0334
    105  N         62.4380   35.2420   38.8030 N.am   52  THR52      -0.1951
    106  CA        63.6060   35.2580   37.9400 C.3    52  THR52       0.1897
    107  C         64.8280   34.6080   38.6250 C.2    52  THR52       0.2313
    108  O         65.8010   34.2300   37.9590 O.2    52  THR52      -0.2863
    109  CB        63.9360   36.7170   37.5580 C.3    52  THR52       0.1794
    110  OG1       63.3900   37.0310   36.2610 O.3    52  THR52      -0.2208
    111  CG2       65.3890   36.9330   37.5360 C.3    52  THR52       0.0378
    112  N         53.0560   32.6150   33.8670 N.3    70  VAL70      -0.1231
    113  CA        53.9890   33.7160   33.8810 C.3    70  VAL70       0.1692
    114  C         53.1950   34.8160   33.2150 C.2    70  VAL70       0.2592
    115  O         52.8780   34.7370   32.0230 O.2    70  VAL70      -0.2718
    116  CB        55.2530   33.4040   33.0550 C.3    70  VAL70       0.0266
    117  CG1       56.2730   34.5380   33.2160 C.3    70  VAL70       0.0020
    118  CG2       55.8440   32.0690   33.4890 C.3    70  VAL70       0.0020
    119  N         52.8370   35.8270   33.9920 N.am   71  ALA71      -0.1966
    120  CA        52.0660   36.9330   33.4610 C.3    71  ALA71       0.1728
    121  C         52.8160   38.2300   33.6650 C.2    71  ALA71       0.2616
    122  O         52.2080   39.2930   33.7940 O.2    71  ALA71      -0.2715
    123  CB        50.7040   36.9960   34.1390 C.3    71  ALA71       0.0334
    124  N         54.1420   38.1450   33.7140 N.am   72  ILE72      -0.1963
    125  CA        54.9740   39.3380   33.8800 C.3    72  ILE72       0.1727
    126  C         54.7400   40.3040   32.7110 C.2    72  ILE72       0.2617
    127  O         54.3910   39.8860   31.6080 O.2    72  ILE72      -0.2715
    128  CB        56.4640   38.9550   33.9590 C.3    72  ILE72       0.0290
    129  CG1       56.7110   38.1530   35.2390 C.3    72  ILE72       0.0022
    130  CG2       57.3220   40.2030   33.9290 C.3    72  ILE72       0.0023
    131  CD1       58.1120   37.6470   35.3610 C.3    72  ILE72       0.0001
    132  N         54.9320   41.5970   32.9560 N.am   73  GLY73      -0.1940
    133  CA        54.6810   42.6000   31.9290 C.3    73  GLY73       0.2014
    134  C         55.8040   42.9540   30.9830 C.2    73  GLY73       0.2639
    135  O         56.5340   42.0870   30.5120 O.2    73  GLY73      -0.2714
    136  N         55.9380   44.2490   30.7230 N.am   74  ALA74      -0.1963
    137  CA        56.9420   44.7900   29.8130 C.3    74  ALA74       0.1728
    138  C         58.3490   44.1920   29.8700 C.2    74  ALA74       0.2616
    139  O         59.1990   44.5230   29.0440 O.2    74  ALA74      -0.2715
    140  CB        57.0150   46.3150   29.9910 C.3    74  ALA74       0.0334
    141  N         58.5980   43.2990   30.8200 N.am   75  ASN75      -0.1958
    142  CA        59.9160   42.6820   30.9700 C.3    75  ASN75       0.1819
    143  C         60.0120   41.3370   30.2430 C.2    75  ASN75       0.2621
    144  O         59.7650   40.2760   30.8240 O.2    75  ASN75      -0.2715
    145  CB        60.2100   42.4990   32.4700 C.3    75  ASN75       0.1195
    146  CG        61.6960   42.3360   32.7760 C.2    75  ASN75       0.2630
    147  OD1       62.3230   41.3380   32.4070 O.2    75  ASN75      -0.2716
    148  ND2       62.2650   43.3290   33.4490 N.am   75  ASN75      -0.0877
    149  N         60.3870   41.3960   28.9680 N.am   76  ILE76      -0.1977
    150  CA        60.5280   40.2020   28.1270 C.3    76  ILE76       0.1596
    151  C         61.6020   39.2610   28.6530 C.2    76  ILE76       0.2287
    152  O         61.5430   38.0410   28.4790 O.2    76  ILE76      -0.2864
    153  CB        60.9010   40.5950   26.6920 C.3    76  ILE76       0.0276
    154  CG1       60.0040   41.7580   26.2500 C.3    76  ILE76       0.0022
    155  CG2       60.8010   39.3830   25.7740 C.3    76  ILE76       0.0022
    156  CD1       59.6630   41.7960   24.7750 C.3    76  ILE76       0.0001
    157  N         62.6630   38.8710   32.0110 N.3    78  ALA78      -0.1231
    158  CA        62.2220   38.1740   33.2160 C.3    78  ALA78       0.1694
    159  C         61.2500   37.0550   32.8640 C.2    78  ALA78       0.2592
    160  O         61.3180   35.9540   33.4270 O.2    78  ALA78      -0.2718
    161  CB        61.5600   39.1580   34.1760 C.3    78  ALA78       0.0304
    162  N         60.3470   37.3510   31.9310 N.am   79  SER79      -0.1952
    163  CA        59.3580   36.3830   31.4980 C.3    79  SER79       0.1924
    164  C         60.0330   35.1150   31.0070 C.2    79  SER79       0.2314
    165  O         59.7800   34.0220   31.5160 O.2    79  SER79      -0.2863
    166  CB        58.4980   36.9690   30.3780 C.3    79  SER79       0.2116
    167  OG        57.5800   36.0050   29.8900 O.3    79  SER79      -0.2180
    168  N         52.1590   34.6890   29.1640 N.3    97  LYS97      -0.1231
    169  CA        51.6740   35.7840   28.3480 C.3    97  LYS97       0.1693
    170  C         52.8530   36.1810   27.4810 C.2    97  LYS97       0.2592
    171  O         53.9990   35.9540   27.8570 O.2    97  LYS97      -0.2718
    172  CB        51.2760   36.9690   29.2090 C.3    97  LYS97       0.0285
    173  CG        51.0020   38.1990   28.3940 C.3    97  LYS97       0.0035
    174  CD        50.5650   39.3440   29.2420 C.3    97  LYS97       0.0206
    175  CE        50.4790   40.5720   28.3940 C.3    97  LYS97       0.1093
    176  NZ        50.1200   41.7610   29.1980 N.3    97  LYS97      -0.1314
    177  N         52.5730   36.7800   26.3310 N.am   98  ALA98      -0.1966
    178  CA        53.6160   37.2090   25.4050 C.3    98  ALA98       0.1728
    179  C         53.2210   38.5350   24.7570 C.2    98  ALA98       0.2616
    180  O         52.0310   38.8660   24.6740 O.2    98  ALA98      -0.2715
    181  CB        53.8090   36.1490   24.3410 C.3    98  ALA98       0.0334
    182  N         54.2050   39.3110   24.3110 N.am   99  GLN99      -0.1977
    183  CA        53.9020   40.5820   23.6480 C.3    99  GLN99       0.1601
    184  C         54.6970   40.7440   22.3570 C.2    99  GLN99       0.2287
    185  O         54.5190   41.7030   21.6110 O.2    99  GLN99      -0.2864
    186  CB        54.1960   41.7640   24.5740 C.3    99  GLN99       0.0394
    187  CG        53.9580   43.1350   23.9340 C.3    99  GLN99       0.0908
    188  CD        52.6090   43.1940   23.2370 C.2    99  GLN99       0.2608
    189  OE1       51.5540   43.1340   23.8850 O.2    99  GLN99      -0.2717
    190  NE2       52.6320   43.2880   21.9070 N.am   99  GLN99      -0.0878
    191  N         59.1590   37.2600   21.2230 N.3   103  HIS103     -0.1241
    192  CA        58.8910   36.6560   22.5150 C.3   103  HIS103      0.1621
    193  C         58.1500   35.3300   22.3120 C.2   103  HIS103      0.2264
    194  O         58.5650   34.2850   22.8190 O.2   103  HIS103     -0.2867
    195  CB        58.0610   37.6450   23.3370 C.3   103  HIS103      0.0745
    196  CG        57.9500   37.3000   24.7860 C.ar  103  HIS103      0.0817
    197  ND1       58.8710   36.5030   25.4410 N.ar  103  HIS103     -0.2268
    198  CD2       57.0380   37.6700   25.7180 C.ar  103  HIS103      0.1154
    199  CE1       58.5270   36.4000   26.7100 C.ar  103  HIS103      0.1986
    200  NE2       57.4190   37.0990   26.9050 N.ar  103  HIS103     -0.2212
    201  N         46.6720   38.4840   24.9120 N.3   118  PRO118     -0.2116
    202  CA        45.4020   39.0650   25.3650 C.3   118  PRO118      0.1372
    203  C         44.6790   39.9370   24.3450 C.2   118  PRO118      0.2244
    204  O         43.4650   39.8510   24.2010 O.2   118  PRO118     -0.2868
    205  CB        45.8020   39.8420   26.6310 C.3   118  PRO118      0.0268
    206  CG        47.2890   40.0020   26.5130 C.3   118  PRO118      0.0207
    207  CD        47.7180   38.7010   25.9200 C.3   118  PRO118      0.0892
@<TRIPOS>BOND
     1   191   192    1
     2   185   184    2
     3   190   188   am
     4   193   192    1
     5   193   194    2
     6   184   183    1
     7   192   195    1
     8   188   189    2
     9   188   187    1
    10   195   196    1
    11   183   182    1
    12   183   186    1
    13   187   186    1
    14   204   203    2
    15   182   179   am
    16   181   178    1
    17   203   202    1
    18   180   179    2
    19   179   178    1
    20   156   154    1
    21   196   197   ar
    22   196   198   ar
    23   201   202    1
    24   201   207    1
    25   202   205    1
    26   178   177    1
    27   197   199   ar
    28   198   200   ar
    29   155   153    1
    30   207   206    1
    31   154   153    1
    32   177   170   am
    33   206   205    1
    34   153   150    1
    35   199   200   ar
    36   170   171    2
    37   170   169    1
    38   150   151    1
    39   150   149    1
    40   169   168    1
    41   169   172    1
    42   173   172    1
    43   173   174    1
    44   175   176    1
    45   175   174    1
    46   152   151    2
    47   149   143   am
    48   139   138    2
    49    34    33    1
    50   137   138    1
    51   137   140    1
    52   137   136    1
    53   138   141   am
    54   167   166    1
    55   143   144    2
    56   143   142    1
    57   166   163    1
    58   135   134    2
    59    44    46   ar
    60    44    42   ar
    61    46    45   ar
    62    35    33    1
    63    33    32    2
    64   136   134   am
    65   141   142    1
    66   142   145    1
    67   134   133    1
    68   164   163    1
    69   164   165    2
    70    42    41   ar
    71    45    43   ar
    72   163   162    1
    73   127   126    2
    74    41    43   ar
    75    41    40    1
    76    32    31    1
    77    31    30    1
    78   133   132    1
    79   162   159   am
    80   157   158    1
    81   115   114    2
    82    40    37    1
    83   147   146    2
    84   145   146    1
    85   126   132   am
    86   126   125    1
    87   146   148   am
    88   159   158    1
    89   159   160    2
    90   116   117    1
    91   116   118    1
    92   116   113    1
    93    30    29    1
    94   114   113    1
    95   114   119   am
    96   158   161    1
    97    37    36    1
    98    37    38    1
    99    29    26    1
   100   120   121    1
   101   120   119    1
   102   120   123    1
   103    36    27   am
   104   121   124   am
   105   121   122    2
   106   124   125    1
   107   112   113    1
   108   125   128    1
   109   130   128    1
   110   128   129    1
   111    27    26    1
   112    27    28    2
   113    38    39    2
   114    26    25    1
   115    25    23   am
   116   129   131    1
   117    23    22    1
   118    23    24    2
   119   110   109    1
   120    22    21    1
   121     4     3    2
   122    21    15   am
   123    12    11    2
   124   111   109    1
   125   109   106    1
   126    10    11    1
   127    10     9    1
   128     3     9   am
   129     3     2    1
   130    11    13   am
   131   106   107    1
   132   106   105    1
   133   108   107    2
   134     5     7    1
   135     5     2    1
   136     5     6    1
   137    15    14    1
   138    15    16    2
   139     1     2    1
   140   103   102    2
   141    13    14    1
   142     8     6    1
   143   105   102   am
   144    14    17    1
   145   102   101    1
   146   104   101    1
   147    86    85    1
   148   101   100    1
   149    85    84    1
   150    99    97   am
   151    69    67    1
   152    17    18    1
   153    60    59   ar
   154    20    18    1
   155   100    94   am
   156    98    97    2
   157    67    66    1
   158    97    96    1
   159    18    19    1
   160    83    84    1
   161    83    82    1
   162    94    95    2
   163    94    93    1
   164    59    61   ar
   165    59    58    1
   166    50    49    2
   167    68    66    1
   168    77    75   am
   169    93    96    1
   170    93    92    1
   171    66    63    1
   172    58    55    1
   173    55    56    1
   174    55    54    1
   175    62    63    1
   176    62    56   am
   177    52    51    1
   178    75    76    2
   179    75    74    1
   180    49    54   am
   181    49    48    1
   182    82    79    1
   183    53    51    1
   184    63    64    1
   185    56    57    2
   186    90    89    2
   187    47    48    1
   188    92    89   am
   189    51    48    1
   190    70    64   am
   191    70    71    1
   192    74    71    1
   193    89    88    1
   194    79    78    1
   195    79    80    1
   196    64    65    2
   197    71    72    1
   198    73    72    2
   199    80    81    2
   200    88    91    1
   201    88    87    1
