@<TRIPOS>MOLECULE
tmp/1lt4A00.pdb
 95 92 0 0 0
SMALL
GASTEIGER

@<TRIPOS>ATOM
      1  N         14.6700   63.7220    6.7120 N.3    13  ARG13      -0.1231
      2  CA        14.3580   63.5420    5.3010 C.3    13  ARG13       0.1694
      3  C         13.5780   62.2330    5.1990 C.2    13  ARG13       0.2592
      4  O         13.7050   61.3660    6.0610 O.2    13  ARG13      -0.2718
      5  CB        15.6390   63.4070    4.4730 C.3    13  ARG13       0.0321
      6  CG        16.7870   64.3500    4.8300 C.3    13  ARG13       0.0489
      7  CD        18.0560   64.0020    4.0050 C.3    13  ARG13       0.2205
      8  NE        19.2690   63.7760    4.8130 N.pl3  13  ARG13      -0.0865
      9  CZ        19.6280   62.6070    5.3600 C.cat  13  ARG13       0.5346
     10  NH1       18.8750   61.5190    5.2090 N.pl3  13  ARG13       0.1354
     11  NH2       20.7630   62.5200    6.0490 N.pl3  13  ARG13       0.1354
     12  N         12.7670   62.0890    4.1570 N.am   14  ASN14      -0.1974
     13  CA        11.9940   60.8660    3.9150 C.3    14  ASN14       0.1688
     14  C         10.8810   60.5680    4.9050 C.2    14  ASN14       0.2292
     15  O         10.4720   59.4100    5.0430 O.2    14  ASN14      -0.2864
     16  CB        12.9180   59.6450    3.8440 C.3    14  ASN14       0.1181
     17  CG        14.0310   59.8070    2.8330 C.2    14  ASN14       0.2629
     18  OD1       13.7900   60.1140    1.6740 O.2    14  ASN14      -0.2716
     19  ND2       15.2650   59.6340    3.2820 N.am   14  ASN14      -0.0877
     20  N         11.1530   48.8540   12.6950 N.3    51  GLU51      -0.1245
     21  CA        12.2010   48.1150   12.0220 C.3    51  GLU51       0.1567
     22  C         13.0820   47.3130   12.9130 C.2    51  GLU51       0.2260
     23  O         13.3360   47.6880   14.0530 O.2    51  GLU51      -0.2867
     24  CB        13.1240   49.0680   11.2630 C.3    51  GLU51       0.0388
     25  CG        12.5400   49.6850    9.9950 C.3    51  GLU51       0.1160
     26  CD        13.5050   50.6640    9.3630 C.2    51  GLU51       0.3649
     27  OE1       14.4670   50.1950    8.7400 O.co2  51  GLU51      -0.2457
     28  OE2       13.3270   51.8930    9.5120 O.co2  51  GLU51      -0.2457
     29  N         21.3740   51.4860   10.1200 N.3    56  GLN56      -0.1231
     30  CA        20.7340   52.7790    9.9390 C.3    56  GLN56       0.1698
     31  C         20.4340   53.4100   11.3030 C.2    56  GLN56       0.2592
     32  O         20.0680   54.5820   11.3860 O.2    56  GLN56      -0.2718
     33  CB        19.4380   52.6370    9.1070 C.3    56  GLN56       0.0381
     34  CG        18.2320   51.9130    9.7790 C.3    56  GLN56       0.0905
     35  CD        18.2770   50.3920    9.6410 C.2    56  GLN56       0.2608
     36  OE1       19.3490   49.7880    9.6580 O.2    56  GLN56      -0.2717
     37  NE2       17.1170   49.7770    9.5090 N.am   56  GLN56      -0.0878
     38  N         20.6450   52.6410   12.3700 N.am   57  HIS57      -0.1962
     39  CA        20.3840   53.1040   13.7260 C.3    57  HIS57       0.1787
     40  C         21.6270   53.4500   14.5090 C.2    57  HIS57       0.2620
     41  O         22.6060   52.7020   14.5230 O.2    57  HIS57      -0.2715
     42  CB        19.6100   52.0500   14.5160 C.3    57  HIS57       0.0785
     43  CG        18.2730   51.7350   13.9400 C.ar   57  HIS57       0.0821
     44  ND1       17.9620   50.4780   13.5110 N.ar   57  HIS57      -0.2267
     45  CD2       17.2220   52.5580   13.7130 C.ar   57  HIS57       0.1154
     46  CE1       16.7350   50.5580   13.0300 C.ar   57  HIS57       0.1986
     47  NE2       16.2460   51.7960   13.1320 N.ar   57  HIS57      -0.2212
     48  N         21.5870   54.6000   15.1660 N.am   58  ILE58      -0.1977
     49  CA        22.7010   55.0090   16.0080 C.3    58  ILE58       0.1596
     50  C         22.4540   54.3140   17.3520 C.2    58  ILE58       0.2287
     51  O         21.3360   53.8660   17.6230 O.2    58  ILE58      -0.2864
     52  CB        22.7460   56.5380   16.1600 C.3    58  ILE58       0.0276
     53  CG1       21.4700   57.0460   16.8250 C.3    58  ILE58       0.0022
     54  CG2       22.8340   57.1790   14.7940 C.3    58  ILE58       0.0022
     55  CD1       21.4460   58.5410   16.9440 C.3    58  ILE58       0.0001
     56  N         19.3400   55.1040   19.5900 N.3    61  GLN61      -0.1245
     57  CA        18.0140   54.6690   19.1440 C.3    61  GLN61       0.1566
     58  C         17.6820   53.2360   19.5760 C.2    61  GLN61       0.2260
     59  O         16.5230   52.8510   19.5830 O.2    61  GLN61      -0.2867
     60  CB        17.9050   54.7260   17.6220 C.3    61  GLN61       0.0367
     61  CG        17.7250   56.0890   17.0570 C.3    61  GLN61       0.0905
     62  CD        17.7450   56.0600   15.5490 C.2    61  GLN61       0.2608
     63  OE1       18.8060   55.8890   14.9410 O.2    61  GLN61      -0.2717
     64  NE2       16.5890   56.2100   14.9390 N.am   61  GLN61      -0.0878
     65  N          8.9430   57.0700    8.2140 N.3    88  TRP88      -0.1241
     66  CA         9.8990   57.1790    7.1270 C.3    88  TRP88       0.1605
     67  C          9.2040   56.4370    5.9940 C.2    88  TRP88       0.2264
     68  O          8.7740   55.2960    6.1730 O.2    88  TRP88      -0.2867
     69  CB        11.1950   56.4710    7.4650 C.3    88  TRP88       0.0550
     70  CG        12.0680   57.2410    8.3560 C.ar   88  TRP88       0.0003
     71  CD1       12.8290   58.3190    8.0190 C.ar   88  TRP88       0.0946
     72  CD2       12.3260   56.9790    9.7410 C.ar   88  TRP88       0.0152
     73  NE1       13.5590   58.7470    9.1090 N.ar   88  TRP88      -0.2442
     74  CE2       13.2700   57.9420   10.1790 C.ar   88  TRP88       0.0810
     75  CE3       11.8600   56.0190   10.6520 C.ar   88  TRP88       0.0012
     76  CZ2       13.7600   57.9720   11.4930 C.ar   88  TRP88       0.0191
     77  CZ3       12.3480   56.0470   11.9600 C.ar   88  TRP88       0.0001
     78  CH2       13.2920   57.0210   12.3650 C.ar   88  TRP88       0.0015
     79  N         10.5390   55.5770    3.0160 N.3    90  ASN90      -0.1225
     80  CA        11.4380   54.9280    2.0860 C.3    90  ASN90       0.1785
     81  C         11.6250   53.4780    2.5610 C.2    90  ASN90       0.2597
     82  O         12.6500   52.8580    2.3170 O.2    90  ASN90      -0.2718
     83  CB        12.7680   55.6720    2.0310 C.3    90  ASN90       0.1169
     84  CG        13.4890   55.6810    3.3580 C.2    90  ASN90       0.2627
     85  OD1       12.8870   55.4970    4.4260 O.2    90  ASN90      -0.2716
     86  ND2       14.7860   55.9030    3.3080 N.am   90  ASN90      -0.0877
     87  N         10.5820   52.9570    3.2030 N.am   91  LYS91      -0.1980
     88  CA        10.5520   51.6090    3.7430 C.3    91  LYS91       0.1596
     89  C          9.1610   51.0850    3.5260 C.2    91  LYS91       0.2287
     90  O          8.2100   51.8660    3.5970 O.2    91  LYS91      -0.2864
     91  CB        10.8060   51.6440    5.2560 C.3    91  LYS91       0.0298
     92  CG        12.0920   51.0120    5.6510 C.3    91  LYS91       0.0038
     93  CD        13.2190   51.9550    5.5430 C.3    91  LYS91       0.0206
     94  CE        14.5140   51.2010    5.4080 C.3    91  LYS91       0.1093
     95  NZ        15.6430   51.9280    6.0430 N.3    91  LYS91      -0.1314
@<TRIPOS>BOND
     1    18    17    2
     2    83    80    1
     3    83    84    1
     4    80    81    1
     5    80    79    1
     6    82    81    2
     7    81    87   am
     8    17    19   am
     9    17    16    1
    10    87    88    1
    11    86    84   am
    12    84    85    2
    13    89    90    2
    14    89    88    1
    15    88    91    1
    16    16    13    1
    17    13    12    1
    18    13    14    1
    19     7     8    1
    20     7     6    1
    21    12     3   am
    22     5     6    1
    23     5     2    1
    24     8     9    2
    25    14    15    2
    26     3     2    1
    27     3     4    2
    28    10     9    1
    29    91    92    1
    30     2     1    1
    31     9    11    1
    32    94    93    1
    33    94    95    1
    34    93    92    1
    35    67    68    2
    36    67    66    1
    37    66    69    1
    38    66    65    1
    39    69    70    1
    40    71    70   ar
    41    71    73   ar
    42    70    72   ar
    43    27    26   ar
    44    33    34    1
    45    33    30    1
    46    73    74   ar
    47    26    28   ar
    48    26    25    1
    49    37    35   am
    50    35    36    2
    51    35    34    1
    52    72    74   ar
    53    72    75   ar
    54    30    29    1
    55    30    31    1
    56    25    24    1
    57    74    76   ar
    58    75    77   ar
    59    24    21    1
    60    31    32    2
    61    31    38   am
    62    76    78   ar
    63    77    78   ar
    64    21    20    1
    65    21    22    1
    66    38    39    1
    67    22    23    2
    68    46    47   ar
    69    46    44   ar
    70    47    45   ar
    71    44    43   ar
    72    45    43   ar
    73    39    40    1
    74    39    42    1
    75    43    42    1
    76    40    41    2
    77    40    48   am
    78    54    52    1
    79    64    62   am
    80    63    62    2
    81    48    49    1
    82    62    61    1
    83    49    52    1
    84    49    50    1
    85    52    53    1
    86    53    55    1
    87    61    60    1
    88    50    51    2
    89    60    57    1
    90    57    58    1
    91    57    56    1
    92    58    59    2
