@<TRIPOS>MOLECULE
tmp/1lt5A00.pdb
 113 111 0 0 0
SMALL
GASTEIGER

@<TRIPOS>ATOM
      1  N         21.2990    3.0960   -6.2830 N.3    12  TYR12      -0.1227
      2  CA        21.8990    1.8220   -5.8930 C.3    12  TYR12       0.1736
      3  C         22.2520    0.8590   -7.0070 C.2    12  TYR12       0.2595
      4  O         21.6970    0.9130   -8.0960 O.2    12  TYR12      -0.2718
      5  CB        21.0100    1.1040   -4.8750 C.3    12  TYR12       0.0548
      6  CG        20.8580    1.8950   -3.6090 C.ar   12  TYR12      -0.0200
      7  CD1       19.8690    2.8770   -3.4960 C.ar   12  TYR12      -0.0009
      8  CD2       21.7530    1.7320   -2.5570 C.ar   12  TYR12      -0.0009
      9  CE1       19.7940    3.6940   -2.3840 C.ar   12  TYR12       0.0417
     10  CE2       21.6890    2.5440   -1.4350 C.ar   12  TYR12       0.0417
     11  CZ        20.7000    3.5200   -1.3570 C.ar   12  TYR12       0.1957
     12  OH        20.6310    4.3480   -0.2680 O.3    12  TYR12      -0.2866
     13  N         23.1940   -0.0100   -6.7000 N.am   13  ARG13      -0.1966
     14  CA        23.6390   -1.0430   -7.6180 C.3    13  ARG13       0.1729
     15  C         22.8840   -2.3040   -7.2480 C.2    13  ARG13       0.2616
     16  O         22.5250   -2.5190   -6.0990 O.2    13  ARG13      -0.2715
     17  CB        25.1430   -1.2890   -7.4680 C.3    13  ARG13       0.0348
     18  CG        26.0030   -0.5500   -8.4790 C.3    13  ARG13       0.0492
     19  CD        27.4120   -1.1320   -8.5010 C.3    13  ARG13       0.2205
     20  NE        28.2010   -0.6210   -9.6220 N.pl3  13  ARG13      -0.0865
     21  CZ        29.4530   -0.1730   -9.5180 C.cat  13  ARG13       0.5346
     22  NH1       30.0700   -0.1700   -8.3400 N.pl3  13  ARG13       0.1354
     23  NH2       30.0860    0.2770  -10.5960 N.pl3  13  ARG13       0.1354
     24  N         22.6410   -3.1560   -8.2420 N.am   14  ASN14      -0.1972
     25  CA        21.9320   -4.4130   -8.0220 C.3    14  ASN14       0.1688
     26  C         20.4830   -4.2130   -7.5930 C.2    14  ASN14       0.2292
     27  O         19.8860   -5.1050   -6.9800 O.2    14  ASN14      -0.2864
     28  CB        22.6700   -5.2780   -6.9940 C.3    14  ASN14       0.1181
     29  CG        24.0930   -5.5510   -7.3910 C.2    14  ASN14       0.2629
     30  OD1       24.3590   -6.0510   -8.4830 O.2    14  ASN14      -0.2716
     31  ND2       25.0350   -5.1790   -6.5360 N.am   14  ASN14      -0.0877
     32  N         15.1320   -9.1130    4.1280 N.3    51  GLU51      -0.1245
     33  CA        16.2180   -9.9670    4.5950 C.3    51  GLU51       0.1567
     34  C         16.4480   -9.9890    6.0950 C.2    51  GLU51       0.2260
     35  O         16.1060   -9.0360    6.8140 O.2    51  GLU51      -0.2867
     36  CB        17.5340   -9.5580    3.9450 C.3    51  GLU51       0.0388
     37  CG        17.6800   -9.9000    2.4940 C.3    51  GLU51       0.1160
     38  CD        18.9880   -9.3780    1.9510 C.2    51  GLU51       0.3649
     39  OE1       20.0070  -10.0840    2.0920 O.co2  51  GLU51      -0.2457
     40  OE2       19.0050   -8.2560    1.4170 O.co2  51  GLU51      -0.2457
     41  N         25.5840   -8.9020    8.1560 N.3    55  SER55      -0.1202
     42  CA        26.8280   -8.1730    8.0140 C.3    55  SER55       0.2020
     43  C         26.8330   -7.1870    6.8460 C.2    55  SER55       0.2619
     44  O         27.7290   -6.3490    6.7450 O.2    55  SER55      -0.2717
     45  CB        27.9840   -9.1680    7.9010 C.3    55  SER55       0.2103
     46  OG        27.9750  -10.0420    9.0220 O.3    55  SER55      -0.2182
     47  N         25.8460   -7.2840    5.9650 N.am   56  GLN56      -0.1965
     48  CA        25.7670   -6.3660    4.8350 C.3    56  GLN56       0.1733
     49  C         25.0530   -5.0690    5.2390 C.2    56  GLN56       0.2616
     50  O         25.2130   -4.0310    4.6010 O.2    56  GLN56      -0.2715
     51  CB        25.0560   -7.0170    3.6360 C.3    56  GLN56       0.0408
     52  CG        23.5450   -7.2470    3.7810 C.3    56  GLN56       0.0908
     53  CD        23.1990   -8.5780    4.4260 C.2    56  GLN56       0.2608
     54  OE1       23.7000   -8.9080    5.5000 O.2    56  GLN56      -0.2717
     55  NE2       22.3430   -9.3520    3.7670 N.am   56  GLN56      -0.0878
     56  N         24.2800   -5.1320    6.3180 N.am   57  HIS57      -0.1959
     57  CA        23.5330   -3.9760    6.7880 C.3    57  HIS57       0.1787
     58  C         24.3500   -3.0550    7.6890 C.2    57  HIS57       0.2620
     59  O         25.1300   -3.5180    8.5240 O.2    57  HIS57      -0.2715
     60  CB        22.2700   -4.4330    7.5180 C.3    57  HIS57       0.0785
     61  CG        21.3510   -5.2420    6.6620 C.ar   57  HIS57       0.0821
     62  ND1       20.9580   -6.5300    6.9980 N.ar   57  HIS57      -0.2267
     63  CD2       20.7500   -4.9740    5.4820 C.ar   57  HIS57       0.1154
     64  CE1       20.1660   -7.0080    6.0560 C.ar   57  HIS57       0.1986
     65  NE2       20.0210   -6.0740    5.1180 N.ar   57  HIS57      -0.2212
     66  N         24.1790   -1.7470    7.5000 N.am   58  ILE58      -0.1977
     67  CA        24.8790   -0.7490    8.3060 C.3    58  ILE58       0.1596
     68  C         24.0180   -0.3520    9.5050 C.2    58  ILE58       0.2287
     69  O         22.8350   -0.6820    9.5600 O.2    58  ILE58      -0.2864
     70  CB        25.1870    0.5360    7.4920 C.3    58  ILE58       0.0276
     71  CG1       23.8890    1.1420    6.9340 C.3    58  ILE58       0.0022
     72  CG2       26.2000    0.2330    6.3930 C.3    58  ILE58       0.0022
     73  CD1       24.0350    2.5520    6.3790 C.3    58  ILE58       0.0001
     74  N         20.3210    0.9860    9.2280 N.3    61  GLN61      -0.1245
     75  CA        19.3790    0.0870    8.5610 C.3    61  GLN61       0.1566
     76  C         18.6440   -0.8660    9.4790 C.2    61  GLN61       0.2260
     77  O         17.5590   -1.3440    9.1470 O.2    61  GLN61      -0.2867
     78  CB        20.0810   -0.7310    7.4960 C.3    61  GLN61       0.0367
     79  CG        20.2320   -0.0320    6.1840 C.3    61  GLN61       0.0905
     80  CD        20.9370   -0.9170    5.1760 C.2    61  GLN61       0.2608
     81  OE1       22.0600   -1.3200    5.4300 O.2    61  GLN61      -0.2717
     82  NE2       20.2480   -1.2460    4.1050 N.am   61  GLN61      -0.0878
     83  N         16.6310   -5.3550   -4.2840 N.3    88  TRP88      -0.1241
     84  CA        17.9660   -5.7420   -4.6650 C.3    88  TRP88       0.1605
     85  C         17.6950   -7.0710   -5.3680 C.2    88  TRP88       0.2264
     86  O         17.0300   -7.9480   -4.8130 O.2    88  TRP88      -0.2867
     87  CB        18.8300   -5.9470   -3.4390 C.3    88  TRP88       0.0550
     88  CG        19.2540   -4.6750   -2.8030 C.ar   88  TRP88       0.0003
     89  CD1       20.2160   -3.8160   -3.2620 C.ar   88  TRP88       0.0946
     90  CD2       18.7720   -4.1070   -1.5900 C.ar   88  TRP88       0.0152
     91  NE1       20.3430   -2.7540   -2.3990 N.ar   88  TRP88      -0.2442
     92  CE2       19.4630   -2.9110   -1.3690 C.ar   88  TRP88       0.0810
     93  CE3       17.7980   -4.5210   -0.6590 C.ar   88  TRP88       0.0012
     94  CZ2       19.2340   -2.1080   -0.2550 C.ar   88  TRP88       0.0191
     95  CZ3       17.5720   -3.7120    0.4460 C.ar   88  TRP88       0.0001
     96  CH2       18.2940   -2.5250    0.6440 C.ar   88  TRP88       0.0015
     97  N         19.9680   -9.2780   -6.4320 N.3    90  ASN90      -0.1225
     98  CA        21.0670  -10.2270   -6.3060 C.3    90  ASN90       0.1785
     99  C         20.7690  -11.0940   -5.0840 C.2    90  ASN90       0.2597
    100  O         21.6690  -11.6090   -4.4310 O.2    90  ASN90      -0.2718
    101  CB        22.4060   -9.5060   -6.1340 C.3    90  ASN90       0.1169
    102  CG        22.4230   -8.5970   -4.9200 C.2    90  ASN90       0.2627
    103  OD1       21.3770   -8.2370   -4.3890 O.2    90  ASN90      -0.2716
    104  ND2       23.6120   -8.2040   -4.5030 N.am   90  ASN90      -0.0877
    105  N         19.4780  -11.2620   -4.8050 N.am   91  LYS91      -0.1980
    106  CA        18.9950  -12.0460   -3.6810 C.3    91  LYS91       0.1596
    107  C         17.7930  -12.8430   -4.1570 C.2    91  LYS91       0.2287
    108  O         17.1080  -12.4330   -5.0860 O.2    91  LYS91      -0.2864
    109  CB        18.5360  -11.1110   -2.5480 C.3    91  LYS91       0.0298
    110  CG        19.4770  -11.0240   -1.3680 C.3    91  LYS91       0.0038
    111  CD        20.8610  -10.6470   -1.8050 C.3    91  LYS91       0.0206
    112  CE        21.8930  -10.9930   -0.7430 C.3    91  LYS91       0.1093
    113  NZ        22.0260   -9.9450    0.2970 N.3    91  LYS91      -0.1314
@<TRIPOS>BOND
     1    23    21    1
     2    20    21    2
     3    20    19    1
     4    21    22    1
     5    19    18    1
     6    30    29    2
     7    18    17    1
     8    24    25    1
     9    24    15   am
    10     4     3    2
    11    25    26    1
    12    25    28    1
    13    14    17    1
    14    14    15    1
    15    14    13    1
    16    26    27    2
    17    29    28    1
    18    29    31   am
    19    15    16    2
    20     3    13   am
    21     3     2    1
    22    97    98    1
    23    98   101    1
    24    98    99    1
    25     1     2    1
    26   101   102    1
    27     2     5    1
    28    85    86    2
    29    85    84    1
    30   108   107    2
    31    99   105   am
    32    99   100    2
    33   102   104   am
    34   102   103    2
    35     5     6    1
    36   105   106    1
    37    84    83    1
    38    84    87    1
    39   107   106    1
    40   106   109    1
    41     6     7   ar
    42     6     8   ar
    43     7     9   ar
    44    87    88    1
    45    89    88   ar
    46    89    91   ar
    47    88    90   ar
    48     8    10   ar
    49   109   110    1
    50    91    92   ar
    51     9    11   ar
    52   111   110    1
    53   111   112    1
    54    90    92   ar
    55    90    93   ar
    56    10    11   ar
    57    92    94   ar
    58    11    12    1
    59   112   113    1
    60    93    95   ar
    61    94    96   ar
    62    95    96   ar
    63    40    38   ar
    64    38    39   ar
    65    38    37    1
    66    37    36    1
    67    51    52    1
    68    51    48    1
    69    55    53   am
    70    52    53    1
    71    36    33    1
    72    82    80   am
    73    32    33    1
    74    53    54    2
    75    33    34    1
    76    50    49    2
    77    48    49    1
    78    48    47    1
    79    65    63   ar
    80    65    64   ar
    81    80    81    2
    82    80    79    1
    83    49    56   am
    84    63    61   ar
    85    47    43   am
    86    64    62   ar
    87    34    35    2
    88    79    78    1
    89    56    57    1
    90    73    71    1
    91    72    70    1
    92    61    62   ar
    93    61    60    1
    94    44    43    2
    95    57    60    1
    96    57    58    1
    97    43    42    1
    98    71    70    1
    99    70    67    1
   100    78    75    1
   101    66    58   am
   102    66    67    1
   103    58    59    2
   104    45    42    1
   105    45    46    1
   106    42    41    1
   107    67    68    1
   108    75    74    1
   109    75    76    1
   110    77    76    2
   111    68    69    2
