@<TRIPOS>MOLECULE
tmp/1lt8A00.pdb
 175 174 0 0 0
SMALL
GASTEIGER

@<TRIPOS>ATOM
      1  N         26.4320    4.1530  -10.0100 N.3    17  GLY17      -0.1210
      2  CA        27.5330    4.9740   -9.5310 C.3    17  GLY17       0.1956
      3  C         27.3250    6.4370   -9.1850 C.2    17  GLY17       0.2612
      4  O         26.2240    6.8540   -8.8100 O.2    17  GLY17      -0.2717
      5  N         28.4110    7.2070   -9.2960 N.am   18  GLY18      -0.1942
      6  CA        28.3760    8.6290   -8.9940 C.3    18  GLY18       0.2014
      7  C         28.2240    9.4610  -10.2550 C.2    18  GLY18       0.2639
      8  O         29.2030    9.7330  -10.9640 O.2    18  GLY18      -0.2714
      9  N         26.9860    9.8690  -10.5230 N.am   19  PHE19      -0.1959
     10  CA        26.6520   10.6490  -11.7100 C.3    19  PHE19       0.1771
     11  C         27.2810   12.0250  -11.8730 C.2    19  PHE19       0.2619
     12  O         27.8950   12.3010  -12.9070 O.2    19  PHE19      -0.2715
     13  CB        25.1310   10.7970  -11.8310 C.3    19  PHE19       0.0574
     14  CG        24.4810    9.7000  -12.6100 C.ar   19  PHE19      -0.0200
     15  CD1       24.4730    8.3980  -12.1220 C.ar   19  PHE19      -0.0042
     16  CD2       23.9220    9.9590  -13.8580 C.ar   19  PHE19      -0.0042
     17  CE1       23.9210    7.3620  -12.8700 C.ar   19  PHE19      -0.0003
     18  CE2       23.3670    8.9320  -14.6180 C.ar   19  PHE19      -0.0003
     19  CZ        23.3690    7.6300  -14.1230 C.ar   19  PHE19      -0.0000
     20  N         27.1290   12.8980  -10.8800 N.am   20  VAL20      -0.1963
     21  CA        27.6760   14.2460  -11.0200 C.3    20  VAL20       0.1727
     22  C         29.1710   14.2420  -11.2890 C.2    20  VAL20       0.2616
     23  O         29.6470   14.9730  -12.1530 O.2    20  VAL20      -0.2715
     24  CB        27.3720   15.1450   -9.7820 C.3    20  VAL20       0.0290
     25  CG1       25.8620   15.3980   -9.6810 C.3    20  VAL20       0.0023
     26  CG2       27.8890   14.5010   -8.5100 C.3    20  VAL20       0.0023
     27  N         29.9110   13.4170  -10.5590 N.am   21  PHE21      -0.1974
     28  CA        31.3500   13.3420  -10.7510 C.3    21  PHE21       0.1639
     29  C         31.6870   12.7310  -12.1040 C.2    21  PHE21       0.2290
     30  O         32.5910   13.1930  -12.7940 O.2    21  PHE21      -0.2864
     31  CB        31.9960   12.5200   -9.6300 C.3    21  PHE21       0.0560
     32  CG        32.5100   13.3510   -8.4820 C.ar   21  PHE21      -0.0200
     33  CD1       33.8600   13.3340   -8.1500 C.ar   21  PHE21      -0.0042
     34  CD2       31.6490   14.1330   -7.7310 C.ar   21  PHE21      -0.0042
     35  CE1       34.3410   14.0820   -7.0860 C.ar   21  PHE21      -0.0003
     36  CE2       32.1200   14.8880   -6.6620 C.ar   21  PHE21      -0.0003
     37  CZ        33.4710   14.8600   -6.3410 C.ar   21  PHE21      -0.0000
     38  N         30.9410   22.3390   -8.2290 N.3    32  GLY32      -0.1225
     39  CA        30.6230   23.5250   -7.4580 C.3    32  GLY32       0.1811
     40  C         29.1470   23.4090   -7.1380 C.2    32  GLY32       0.2280
     41  O         28.7790   22.9630   -6.0470 O.2    32  GLY32      -0.2866
     42  N         27.1400   21.4910   -8.7910 N.3    34  TRP34      -0.1241
     43  CA        26.8350   20.0870   -9.0680 C.3    34  TRP34       0.1605
     44  C         25.3610   19.8410   -9.4200 C.2    34  TRP34       0.2264
     45  O         24.7390   18.9350   -8.8560 O.2    34  TRP34      -0.2867
     46  CB        27.1830   19.2230   -7.8550 C.3    34  TRP34       0.0550
     47  CG        28.5930   19.3230   -7.3570 C.ar   34  TRP34       0.0003
     48  CD1       29.0110   19.8940   -6.1820 C.ar   34  TRP34       0.0946
     49  CD2       29.7570   18.7360   -7.9510 C.ar   34  TRP34       0.0152
     50  NE1       30.3620   19.6850   -6.0030 N.ar   34  TRP34      -0.2442
     51  CE2       30.8440   18.9790   -7.0740 C.ar   34  TRP34       0.0810
     52  CE3       29.9900   18.0220   -9.1360 C.ar   34  TRP34       0.0012
     53  CZ2       32.1410   18.5300   -7.3460 C.ar   34  TRP34       0.0191
     54  CZ3       31.2850   17.5750   -9.4050 C.ar   34  TRP34       0.0001
     55  CH2       32.3410   17.8320   -8.5120 C.ar   34  TRP34       0.0015
     56  N         19.1670    5.5440  -10.4110 N.3    62  GLN62      -0.1245
     57  CA        18.7210    6.6780   -9.6020 C.3    62  GLN62       0.1566
     58  C         18.4440    7.8390  -10.5420 C.2    62  GLN62       0.2260
     59  O         19.1860    8.0560  -11.5000 O.2    62  GLN62      -0.2867
     60  CB        19.7950    7.0930   -8.5910 C.3    62  GLN62       0.0367
     61  CG        19.9870    6.1270   -7.4350 C.3    62  GLN62       0.0905
     62  CD        20.9360    6.6670   -6.3720 C.2    62  GLN62       0.2608
     63  OE1       20.7590    7.7790   -5.8760 O.2    62  GLN62      -0.2717
     64  NE2       21.9430    5.8760   -6.0160 N.am   62  GLN62      -0.0878
     65  N         18.7210   11.2220  -12.0520 N.3    64  PHE64      -0.1241
     66  CA        19.7360   12.2600  -11.9870 C.3    64  PHE64       0.1605
     67  C         19.0300   13.5090  -11.4640 C.2    64  PHE64       0.2264
     68  O         18.7810   14.4550  -12.2030 O.2    64  PHE64      -0.2867
     69  CB        20.3290   12.4980  -13.3810 C.3    64  PHE64       0.0534
     70  CG        21.5450   13.3850  -13.3830 C.ar   64  PHE64      -0.0203
     71  CD1       22.5220   13.2480  -12.4050 C.ar   64  PHE64      -0.0042
     72  CD2       21.7110   14.3610  -14.3610 C.ar   64  PHE64      -0.0042
     73  CE1       23.6420   14.0720  -12.3950 C.ar   64  PHE64      -0.0003
     74  CE2       22.8270   15.1890  -14.3610 C.ar   64  PHE64      -0.0003
     75  CZ        23.7960   15.0450  -13.3740 C.ar   64  PHE64      -0.0000
     76  N         19.9950   14.9670   -8.2000 N.3    66  PHE66      -0.1227
     77  CA        20.7630   15.4320   -7.0520 C.3    66  PHE66       0.1736
     78  C         20.8290   16.9510   -7.1890 C.2    66  PHE66       0.2595
     79  O         21.1980   17.4670   -8.2450 O.2    66  PHE66      -0.2718
     80  CB        22.1670   14.8130   -7.0760 C.3    66  PHE66       0.0547
     81  CG        23.0680   15.2860   -5.9680 C.ar   66  PHE66      -0.0202
     82  CD1       24.0640   16.2280   -6.2220 C.ar   66  PHE66      -0.0042
     83  CD2       22.9290   14.7850   -4.6750 C.ar   66  PHE66      -0.0042
     84  CE1       24.9150   16.6680   -5.2060 C.ar   66  PHE66      -0.0003
     85  CE2       23.7720   15.2150   -3.6470 C.ar   66  PHE66      -0.0003
     86  CZ        24.7710   16.1610   -3.9150 C.ar   66  PHE66      -0.0000
     87  N         20.4590   17.6670   -6.1310 N.am   67  TYR67      -0.1976
     88  CA        20.4630   19.1250   -6.1840 C.3    67  TYR67       0.1639
     89  C         19.4870   19.5820   -7.2680 C.2    67  TYR67       0.2290
     90  O         19.7360   20.5590   -7.9730 O.2    67  TYR67      -0.2864
     91  CB        21.8680   19.6490   -6.5080 C.3    67  TYR67       0.0560
     92  CG        22.8540   19.5900   -5.3590 C.ar   67  TYR67      -0.0198
     93  CD1       22.5020   19.0230   -4.1290 C.ar   67  TYR67      -0.0009
     94  CD2       24.1400   20.1190   -5.4990 C.ar   67  TYR67      -0.0009
     95  CE1       23.4050   18.9870   -3.0680 C.ar   67  TYR67       0.0417
     96  CE2       25.0540   20.0870   -4.4460 C.ar   67  TYR67       0.0417
     97  CZ        24.6810   19.5200   -3.2320 C.ar   67  TYR67       0.1957
     98  OH        25.5830   19.4890   -2.1900 O.3    67  TYR67      -0.2866
     99  N         18.9560   10.5880    0.2500 N.3   136  GLU136     -0.1231
    100  CA        20.4040   10.5000    0.4020 C.3   136  GLU136      0.1699
    101  C         21.0910   11.8300    0.6310 C.2   136  GLU136      0.2592
    102  O         20.4890   12.9040    0.5280 O.2   136  GLU136     -0.2718
    103  CB        21.0370    9.8120   -0.8050 C.3   136  GLU136      0.0402
    104  CG        20.5510   10.3150   -2.1340 C.3   136  GLU136      0.1161
    105  CD        21.4460    9.8770   -3.2720 C.2   136  GLU136      0.3649
    106  OE1       21.8680    8.6960   -3.2860 O.co2 136  GLU136     -0.2457
    107  OE2       21.7220   10.7140   -4.1600 O.co2 136  GLU136     -0.2457
    108  N         22.3740   11.7340    0.9480 N.am  137  TYR137     -0.1976
    109  CA        23.1990   12.8950    1.2160 C.3   137  TYR137      0.1639
    110  C         22.5440   13.7870    2.2590 C.2   137  TYR137      0.2290
    111  O         21.9770   14.8370    1.9450 O.2   137  TYR137     -0.2864
    112  CB        23.4700   13.6770   -0.0720 C.3   137  TYR137      0.0560
    113  CG        24.7550   14.4710    0.0060 C.ar  137  TYR137     -0.0198
    114  CD1       24.7390   15.8620    0.1510 C.ar  137  TYR137     -0.0009
    115  CD2       25.9920   13.8240   -0.0130 C.ar  137  TYR137     -0.0009
    116  CE1       25.9260   16.5850    0.2770 C.ar  137  TYR137      0.0417
    117  CE2       27.1820   14.5340    0.1130 C.ar  137  TYR137      0.0417
    118  CZ        27.1450   15.9150    0.2570 C.ar  137  TYR137      0.1957
    119  OH        28.3220   16.6230    0.3770 O.3   137  TYR137     -0.2866
    120  N         26.1480    7.0700    2.5350 N.3   193  ASN193     -0.1225
    121  CA        26.6050    7.3420    1.1850 C.3   193  ASN193      0.1785
    122  C         27.5150    8.5610    1.1620 C.2   193  ASN193      0.2597
    123  O         27.3580    9.4920    1.9610 O.2   193  ASN193     -0.2718
    124  CB        25.4290    7.5230    0.2080 C.3   193  ASN193      0.1169
    125  CG        24.8640    8.9500    0.1940 C.2   193  ASN193      0.2627
    126  OD1       24.2240    9.3910    1.1440 O.2   193  ASN193     -0.2716
    127  ND2       25.1010    9.6700   -0.8990 N.am  193  ASN193     -0.0877
    128  N         28.5060    8.5210    0.2750 N.am  194  CYS194     -0.1970
    129  CA        29.4390    9.6370    0.1010 C.3   194  CYS194      0.1712
    130  C         30.3410    9.9450    1.3020 C.2   194  CYS194      0.2296
    131  O         30.3960    9.1800    2.2660 O.2   194  CYS194     -0.2864
    132  CB        28.6370   10.8850   -0.2760 C.3   194  CYS194      0.0983
    133  SG        29.5630   12.0860   -1.2870 S.3   194  CYS194     -0.0798
    134  N         35.3720   13.8830    2.7830 N.3   238  PHE238     -0.1227
    135  CA        36.3600   14.2850    1.7920 C.3   238  PHE238      0.1736
    136  C         36.2760   15.7220    1.2940 C.2   238  PHE238      0.2595
    137  O         37.2370   16.2310    0.7360 O.2   238  PHE238     -0.2718
    138  CB        36.3670   13.3090    0.5960 C.3   238  PHE238      0.0547
    139  CG        35.2550   13.5250   -0.4140 C.ar  238  PHE238     -0.0202
    140  CD1       35.4730   13.2230   -1.7620 C.ar  238  PHE238     -0.0042
    141  CD2       33.9950   13.9670   -0.0270 C.ar  238  PHE238     -0.0042
    142  CE1       34.4550   13.3550   -2.7090 C.ar  238  PHE238     -0.0003
    143  CE2       32.9700   14.1020   -0.9640 C.ar  238  PHE238     -0.0003
    144  CZ        33.1950   13.7960   -2.3080 C.ar  238  PHE238     -0.0000
    145  N         35.1450   16.3850    1.4940 N.am  239  ILE239     -0.1980
    146  CA        35.0290   17.7550    1.0310 C.3   239  ILE239      0.1595
    147  C         36.0720   18.6690    1.6710 C.2   239  ILE239      0.2287
    148  O         36.5680   19.5940    1.0300 O.2   239  ILE239     -0.2864
    149  CB        33.6120   18.3150    1.2980 C.3   239  ILE239      0.0276
    150  CG1       32.6210   17.6470    0.3420 C.3   239  ILE239      0.0022
    151  CG2       33.6010   19.8330    1.1150 C.3   239  ILE239      0.0022
    152  CD1       31.1820   18.0720    0.5270 C.3   239  ILE239      0.0001
    153  N         39.8040   18.1270   -2.7580 N.3   244  PHE244     -0.1241
    154  CA        38.4210   18.1270   -3.2370 C.3   244  PHE244      0.1605
    155  C         38.1650   19.4180   -4.0120 C.2   244  PHE244      0.2264
    156  O         38.4630   20.5120   -3.5120 O.2   244  PHE244     -0.2867
    157  CB        37.4190   18.0720   -2.0840 C.3   244  PHE244      0.0534
    158  CG        35.9730   18.1500   -2.5370 C.ar  244  PHE244     -0.0203
    159  CD1       35.2610   16.9890   -2.8500 C.ar  244  PHE244     -0.0042
    160  CD2       35.3340   19.3870   -2.6840 C.ar  244  PHE244     -0.0042
    161  CE1       33.9430   17.0550   -3.2990 C.ar  244  PHE244     -0.0003
    162  CE2       34.0110   19.4660   -3.1360 C.ar  244  PHE244     -0.0003
    163  CZ        33.3120   18.2990   -3.4440 C.ar  244  PHE244     -0.0000
    164  N         29.0790    5.9350   -4.6320 N.3   276  CYS276     -0.1221
    165  CA        28.7570    7.3300   -4.8380 C.3   276  CYS276      0.1808
    166  C         29.8730    7.9680   -5.6600 C.2   276  CYS276      0.2601
    167  O         30.4410    7.3180   -6.5380 O.2   276  CYS276     -0.2717
    168  CB        28.6140    8.0070   -3.4810 C.3   276  CYS276      0.0970
    169  SG        27.7400    9.5830   -3.5700 S.3   276  CYS276     -0.0800
    170  N         30.1900    9.2280   -5.3730 N.am  277  CYS277     -0.1970
    171  CA        31.2400    9.9400   -6.1040 C.3   277  CYS277      0.1712
    172  C         32.5100    9.1390   -6.3120 C.2   277  CYS277      0.2296
    173  O         33.0980    8.6450   -5.3600 O.2   277  CYS277     -0.2864
    174  CB        31.6230   11.2080   -5.3740 C.3   277  CYS277      0.0983
    175  SG        30.1640   12.2300   -5.0880 S.3   277  CYS277     -0.0798
@<TRIPOS>BOND
     1    18    19   ar
     2    18    16   ar
     3    72    74   ar
     4    72    70   ar
     5    74    75   ar
     6    19    17   ar
     7    16    14   ar
     8    70    69    1
     9    70    71   ar
    10    69    66    1
    11    75    73   ar
    12    12    11    2
    13    17    15   ar
    14    30    29    2
    15    14    15   ar
    16    14    13    1
    17    71    73   ar
    18    68    67    2
    19    23    22    2
    20    29    28    1
    21    65    66    1
    22    66    67    1
    23    11    10    1
    24    11    20   am
    25    13    10    1
    26    10     9    1
    27    59    58    2
    28    22    21    1
    29    22    27   am
    30    21    20    1
    31    21    24    1
    32     8     7    2
    33    28    27    1
    34    28    31    1
    35    58    57    1
    36     9     7   am
    37    56    57    1
    38     7     6    1
    39     1     2    1
    40    24    25    1
    41    24    26    1
    42    31    32    1
    43    57    60    1
    44     2     3    1
    45    44    43    1
    46    44    45    2
    47    54    52   ar
    48    54    55   ar
    49     5     3   am
    50     5     6    1
    51     3     4    2
    52    52    49   ar
    53    43    42    1
    54    43    46    1
    55    60    61    1
    56    55    53   ar
    57    32    33   ar
    58    32    34   ar
    59    79    78    2
    60    38    39    1
    61    76    77    1
    62    33    35   ar
    63    90    89    2
    64    49    47   ar
    65    49    51   ar
    66    46    47    1
    67    34    36   ar
    68    39    40    1
    69    61    62    1
    70    47    48   ar
    71    53    51   ar
    72    89    88    1
    73    78    77    1
    74    78    87   am
    75    40    41    2
    76    35    37   ar
    77    80    77    1
    78    80    81    1
    79    51    50   ar
    80    36    37   ar
    81   167   166    2
    82    91    88    1
    83    91    92    1
    84    62    64   am
    85    62    63    2
    86   172   171    1
    87   172   173    2
    88    82    81   ar
    89    82    84   ar
    90    88    87    1
    91    48    50   ar
    92   171   174    1
    93   171   170    1
    94    81    83   ar
    95   166   170   am
    96   166   165    1
    97    94    92   ar
    98    94    96   ar
    99   174   175    1
   100    92    93   ar
   101    84    86   ar
   102   165   164    1
   103   165   168    1
   104    83    85   ar
   105    96    97   ar
   106   107   105   ar
   107    93    95   ar
   108   155   156    2
   109   155   154    1
   110    86    85   ar
   111   169   168    1
   112   163   161   ar
   113   163   162   ar
   114   161   159   ar
   115   106   105   ar
   116   105   104    1
   117   154   153    1
   118   154   157    1
   119    97    95   ar
   120    97    98    1
   121   162   160   ar
   122   159   158   ar
   123   142   144   ar
   124   142   140   ar
   125   160   158   ar
   126   158   157    1
   127   144   143   ar
   128   104   103    1
   129   140   139   ar
   130   133   132    1
   131   143   141   ar
   132   127   125   am
   133   103   100    1
   134   139   141   ar
   135   139   138    1
   136   132   129    1
   137   112   113    1
   138   112   109    1
   139   115   113   ar
   140   115   117   ar
   141   113   114   ar
   142   129   128    1
   143   129   130    1
   144   117   118   ar
   145   114   116   ar
   146   125   124    1
   147   125   126    2
   148   124   121    1
   149    99   100    1
   150   118   116   ar
   151   118   119    1
   152   128   122   am
   153   150   152    1
   154   150   149    1
   155   100   101    1
   156   102   101    2
   157   138   135    1
   158   101   108   am
   159   137   136    2
   160   108   109    1
   161   148   147    2
   162   146   149    1
   163   146   145    1
   164   146   147    1
   165   151   149    1
   166   122   121    1
   167   122   123    2
   168   121   120    1
   169   109   110    1
   170   136   145   am
   171   136   135    1
   172   130   131    2
   173   135   134    1
   174   111   110    2
