@<TRIPOS>MOLECULE
tmp/1lteA01.pdb
 107 106 0 0 0
SMALL
GASTEIGER

@<TRIPOS>ATOM
      1  N         16.4490  -12.4420   40.3280 N.3    85  PRO85      -0.2102
      2  CA        16.0830  -11.0710   40.6700 C.3    85  PRO85       0.1504
      3  C         14.6160  -10.8100   40.3590 C.2    85  PRO85       0.2575
      4  O         13.9720  -11.6670   39.7330 O.2    85  PRO85      -0.2718
      5  CB        17.0530  -10.2570   39.8500 C.3    85  PRO85       0.0282
      6  CG        17.1640  -11.0530   38.5990 C.3    85  PRO85       0.0208
      7  CD        17.2240  -12.4730   39.0950 C.3    85  PRO85       0.0893
      8  N         14.0530   -9.6960   40.8330 N.am   86  LEU86      -0.1980
      9  CA        12.6560   -9.3540   40.5520 C.3    86  LEU86       0.1596
     10  C         12.4470   -9.3040   39.0320 C.2    86  LEU86       0.2287
     11  O         13.3430   -8.8410   38.3200 O.2    86  LEU86      -0.2864
     12  CB        12.3000   -7.9890   41.1410 C.3    86  LEU86       0.0297
     13  CG        10.8300   -7.7200   41.5340 C.3    86  LEU86       0.0022
     14  CD1       10.9680   -6.8020   42.7300 C.3    86  LEU86       0.0001
     15  CD2        9.9180   -7.1230   40.4350 C.3    86  LEU86       0.0001
     16  N         10.9790   -8.0740   35.3320 N.3    88  ALA88      -0.1231
     17  CA        10.9100   -6.7300   34.7810 C.3    88  ALA88       0.1694
     18  C         10.7190   -6.8370   33.2730 C.2    88  ALA88       0.2592
     19  O         11.0610   -7.9140   32.7570 O.2    88  ALA88      -0.2718
     20  CB        12.2260   -6.0070   35.0810 C.3    88  ALA88       0.0304
     21  N         10.2160   -5.8780   32.4830 N.am   89  ASP89      -0.1974
     22  CA         9.7540   -4.5720   32.9550 C.3    89  ASP89       0.1709
     23  C          8.2800   -4.3410   32.6880 C.2    89  ASP89       0.2293
     24  O          7.6350   -3.5870   33.4260 O.2    89  ASP89      -0.2864
     25  CB        10.5540   -3.4180   32.3310 C.3    89  ASP89       0.1436
     26  CG        11.7770   -3.0900   33.1700 C.2    89  ASP89       0.3671
     27  OD1       11.7010   -2.4180   34.2080 O.co2  89  ASP89      -0.2456
     28  OD2       12.8650   -3.5130   32.8000 O.co2  89  ASP89      -0.2456
     29  N         13.9110   -1.2420   29.1110 N.3   106  TYR106     -0.1227
     30  CA        13.8230   -1.4450   30.5610 C.3   106  TYR106      0.1736
     31  C         12.5890   -0.7160   31.0690 C.2   106  TYR106      0.2596
     32  O         11.5580   -0.8000   30.3890 O.2   106  TYR106     -0.2718
     33  CB        15.1030   -0.9200   31.2940 C.3   106  TYR106      0.0548
     34  CG        16.4140   -1.3530   30.6680 C.ar  106  TYR106     -0.0200
     35  CD1       16.6450   -2.6740   30.3460 C.ar  106  TYR106     -0.0009
     36  CD2       17.3430   -0.3880   30.3810 C.ar  106  TYR106     -0.0009
     37  CE1       17.8190   -3.0350   29.7410 C.ar  106  TYR106      0.0417
     38  CE2       18.5140   -0.7420   29.7770 C.ar  106  TYR106      0.0417
     39  CZ        18.7470   -2.0600   29.4740 C.ar  106  TYR106      0.1957
     40  OH        19.9400   -2.3710   28.8680 O.3   106  TYR106     -0.2866
     41  N         12.6470    0.0090   32.1960 N.am  107  GLY107     -0.1957
     42  CA        11.5080    0.7370   32.7370 C.3   107  GLY107      0.1869
     43  C         10.9150    1.7760   31.8100 C.2   107  GLY107      0.2309
     44  O          9.8150    2.2540   32.0480 O.2   107  GLY107     -0.2863
     45  N          7.6970   -3.7970   37.2450 N.3   131  PHE131     -0.1241
     46  CA         8.8450   -3.5440   38.0930 C.3   131  PHE131      0.1605
     47  C          8.7350   -2.1430   38.6680 C.2   131  PHE131      0.2264
     48  O          8.5520   -1.2090   37.9190 O.2   131  PHE131     -0.2867
     49  CB        10.1170   -3.6780   37.2740 C.3   131  PHE131      0.0534
     50  CG        11.3620   -3.3820   38.0920 C.ar  131  PHE131     -0.0203
     51  CD1       11.9150   -4.3820   38.8620 C.ar  131  PHE131     -0.0042
     52  CD2       11.9170   -2.1110   38.1120 C.ar  131  PHE131     -0.0042
     53  CE1       13.0130   -4.1110   39.6580 C.ar  131  PHE131     -0.0003
     54  CE2       13.0120   -1.8510   38.9110 C.ar  131  PHE131     -0.0003
     55  CZ        13.5620   -2.8480   39.6880 C.ar  131  PHE131     -0.0000
     56  N         10.0800    1.1660   39.5420 N.3   133  ASN133     -0.1226
     57  CA        11.1930    2.0820   39.3140 C.3   133  ASN133      0.1770
     58  C         11.1020    3.2670   40.2800 C.2   133  ASN133      0.2439
     59  O         10.0690    3.4000   40.9330 O.2   133  ASN133     -0.2733
     60  CB        11.1390    2.6200   37.8980 C.3   133  ASN133      0.1168
     61  CG        11.4660    1.5880   36.8500 C.2   133  ASN133      0.2627
     62  OD1       10.6130    0.9270   36.2850 O.2   133  ASN133     -0.2716
     63  ND2       12.7240    1.3640   36.5620 N.am  133  ASN133     -0.0877
     64  N         12.0390    4.2210   40.4410 N.am  134  PRO134     -0.2718
     65  CA        11.9240    5.3460   41.3650 C.3   134  PRO134      0.1535
     66  C         10.7050    6.1970   41.1060 C.2   134  PRO134      0.2598
     67  O         10.2280    6.8570   42.0120 O.2   134  PRO134     -0.2715
     68  CB        13.1990    6.1320   41.1990 C.3   134  PRO134      0.0310
     69  CG        14.1900    5.0820   40.8450 C.3   134  PRO134      0.0237
     70  CD        13.3820    4.2320   39.8510 C.3   134  PRO134      0.0939
     71  N         10.2210    6.2260   39.8670 N.am  135  TRP135     -0.1974
     72  CA         9.0520    7.0140   39.5360 C.3   135  TRP135      0.1640
     73  C          7.7570    6.2420   39.7190 C.2   135  TRP135      0.2290
     74  O          6.6910    6.8300   39.5920 O.2   135  TRP135     -0.2864
     75  CB         9.1400    7.4900   38.0810 C.3   135  TRP135      0.0576
     76  CG         9.3450    6.3840   37.0500 C.ar  135  TRP135      0.0006
     77  CD1        8.3190    5.6030   36.5820 C.ar  135  TRP135      0.0946
     78  CD2       10.5570    6.0330   36.5140 C.ar  135  TRP135      0.0152
     79  NE1        8.8940    4.7610   35.7550 N.ar  135  TRP135     -0.2442
     80  CE2       10.2090    4.9890   35.6740 C.ar  135  TRP135      0.0810
     81  CE3       11.8660    6.4630   36.6220 C.ar  135  TRP135      0.0012
     82  CZ2       11.1660    4.3390   34.9300 C.ar  135  TRP135      0.0191
     83  CZ3       12.8260    5.8080   35.8720 C.ar  135  TRP135      0.0001
     84  CH2       12.4760    4.7550   35.0350 C.ar  135  TRP135      0.0015
     85  N         14.2750   -6.5650   31.8360 N.3   217  GLY217     -0.1210
     86  CA        15.2320   -5.8560   32.6560 C.3   217  GLY217      0.1956
     87  C         16.6810   -5.7140   32.2630 C.2   217  GLY217      0.2612
     88  O         17.2150   -6.3910   31.3810 O.2   217  GLY217     -0.2717
     89  N         17.2610   -4.7840   33.0510 N.am  218  ALA218     -0.1965
     90  CA        18.6540   -4.3750   32.9460 C.3   218  ALA218      0.1728
     91  C         19.6860   -5.2640   33.6360 C.2   218  ALA218      0.2616
     92  O         20.8800   -4.9760   33.5170 O.2   218  ALA218     -0.2715
     93  CB        18.7980   -2.9680   33.5260 C.3   218  ALA218      0.0334
     94  N         19.3420   -6.3020   34.4150 N.am  219  GLN219     -0.1977
     95  CA        20.3650   -7.1610   35.0020 C.3   219  GLN219      0.1601
     96  C         20.0030   -8.5900   34.6570 C.2   219  GLN219      0.2287
     97  O         18.8380   -8.8740   34.3160 O.2   219  GLN219     -0.2864
     98  CB        20.4310   -6.9850   36.5110 C.3   219  GLN219      0.0394
     99  CG        19.2460   -7.3830   37.3570 C.3   219  GLN219      0.0908
    100  CD        19.5550   -7.1200   38.8230 C.2   219  GLN219      0.2608
    101  OE1       19.9940   -8.1190   39.5810 O.2   219  GLN219     -0.2717
    102  NE2       19.4650   -5.9880   39.3100 N.am  219  GLN219     -0.0878
    103  N         16.4430  -10.6640   35.0050 N.3   222  ALA222     -0.1245
    104  CA        15.3300   -9.8650   35.4960 C.3   222  ALA222      0.1562
    105  C         14.5150   -9.8770   34.1950 C.2   222  ALA222      0.2260
    106  O         14.6670   -9.0180   33.3050 O.2   222  ALA222     -0.2867
    107  CB        15.8190   -8.4530   35.8520 C.3   222  ALA222      0.0290
@<TRIPOS>BOND
     1    40    39    1
     2    29    30    1
     3    39    37   ar
     4    39    38   ar
     5    37    35   ar
     6    38    36   ar
     7    35    34   ar
     8    36    34   ar
     9    32    31    2
    10    30    31    1
    11    30    33    1
    12    34    33    1
    13    31    41   am
    14    88    87    2
    15    43    44    2
    16    43    42    1
    17    85    86    1
    18    41    42    1
    19    87    86    1
    20    87    89   am
    21    25    22    1
    22    25    26    1
    23    21    22    1
    24    21    18   am
    25    23    22    1
    26    23    24    2
    27    19    18    2
    28    28    26   ar
    29    90    89    1
    30    90    93    1
    31    90    91    1
    32    26    27   ar
    33    18    17    1
    34   106   105    2
    35    92    91    2
    36    91    94   am
    37   105   104    1
    38    97    96    2
    39    94    95    1
    40    96    95    1
    41    17    20    1
    42    17    16    1
    43    82    84   ar
    44    82    80   ar
    45    95    98    1
    46   103   104    1
    47    84    83   ar
    48   104   107    1
    49    80    79   ar
    50    80    78   ar
    51    79    77   ar
    52    83    81   ar
    53    62    61    2
    54    98    99    1
    55    78    81   ar
    56    78    76   ar
    57    63    61   am
    58    77    76   ar
    59    61    60    1
    60    76    75    1
    61    45    46    1
    62    49    50    1
    63    49    46    1
    64    99   100    1
    65    60    57    1
    66    48    47    2
    67    75    72    1
    68    50    52   ar
    69    50    51   ar
    70    46    47    1
    71    52    54   ar
    72    11    10    2
    73     6     7    1
    74     6     5    1
    75   100   102   am
    76   100   101    2
    77    51    53   ar
    78    54    55   ar
    79    10     9    1
    80     7     1    1
    81    57    56    1
    82    57    58    1
    83    72    73    1
    84    72    71    1
    85    74    73    2
    86    53    55   ar
    87     4     3    2
    88     5     2    1
    89    70    64    1
    90    70    69    1
    91    71    66   am
    92    58    64   am
    93    58    59    2
    94     1     2    1
    95     3     2    1
    96     3     8   am
    97    15    13    1
    98    64    65    1
    99     9     8    1
   100     9    12    1
   101    69    68    1
   102    66    65    1
   103    66    67    2
   104    12    13    1
   105    68    65    1
   106    13    14    1
