@<TRIPOS>MOLECULE
tmp/1ltiD00.pdb
 101 98 0 0 0
SMALL
GASTEIGER

@<TRIPOS>ATOM
      1  N         14.9550   15.4230   41.0000 N.3    13  ARG13      -0.1231
      2  CA        15.0590   14.7710   42.2950 C.3    13  ARG13       0.1694
      3  C         14.5280   15.7080   43.3580 C.2    13  ARG13       0.2592
      4  O         14.7170   16.9140   43.2810 O.2    13  ARG13      -0.2718
      5  CB        16.5160   14.4570   42.6330 C.3    13  ARG13       0.0321
      6  CG        16.9670   13.0620   42.2700 C.3    13  ARG13       0.0489
      7  CD        18.3280   12.7490   42.9100 C.3    13  ARG13       0.2205
      8  NE        18.3100   12.9120   44.3680 N.pl3  13  ARG13      -0.0865
      9  CZ        18.0830   11.9320   45.2440 C.cat  13  ARG13       0.5346
     10  NH1       17.8590   10.6810   44.8470 N.pl3  13  ARG13       0.1354
     11  NH2       18.0010   12.2210   46.5320 N.pl3  13  ARG13       0.1354
     12  N         13.8420   15.1410   44.3380 N.am   14  ASN14      -0.1974
     13  CA        13.3280   15.9010   45.4690 C.3    14  ASN14       0.1688
     14  C         12.2160   16.9040   45.1610 C.2    14  ASN14       0.2292
     15  O         12.0950   17.9280   45.8410 O.2    14  ASN14      -0.2864
     16  CB        14.4930   16.5940   46.2030 C.3    14  ASN14       0.1181
     17  CG        15.6660   15.6530   46.4710 C.2    14  ASN14       0.2629
     18  OD1       16.8230   15.9750   46.1940 O.2    14  ASN14      -0.2716
     19  ND2       15.3700   14.4860   47.0170 N.am   14  ASN14      -0.0877
     20  N         13.6990   30.7850   45.8670 N.3    51  GLU51      -0.1245
     21  CA        15.0330   30.9280   46.4060 C.3    51  GLU51       0.1567
     22  C         15.8180   32.1400   45.9440 C.2    51  GLU51       0.2260
     23  O         15.5980   32.6820   44.8530 O.2    51  GLU51      -0.2867
     24  CB        15.8570   29.6770   46.1100 C.3    51  GLU51       0.0388
     25  CG        15.5140   28.4620   46.9670 C.3    51  GLU51       0.1160
     26  CD        16.3580   27.2400   46.6140 C.2    51  GLU51       0.3649
     27  OE1       17.5630   27.2270   46.9350 O.co2  51  GLU51      -0.2457
     28  OE2       15.8170   26.2920   46.0150 O.co2  51  GLU51      -0.2457
     29  N         24.6230   29.6390   44.4890 N.3    55  SER55      -0.1202
     30  CA        25.5230   28.6680   43.8760 C.3    55  SER55       0.2020
     31  C         24.8960   27.3800   43.3030 C.2    55  SER55       0.2619
     32  O         25.5340   26.6950   42.5000 O.2    55  SER55      -0.2717
     33  CB        26.6400   28.3230   44.8700 C.3    55  SER55       0.2103
     34  OG        26.1240   28.2650   46.1940 O.3    55  SER55      -0.2182
     35  N         23.6800   27.0330   43.7250 N.am   56  GLN56      -0.1965
     36  CA        23.0130   25.8280   43.2370 C.3    56  GLN56       0.1733
     37  C         22.2320   26.0920   41.9460 C.2    56  GLN56       0.2616
     38  O         21.4860   25.2240   41.4780 O.2    56  GLN56      -0.2715
     39  CB        22.0670   25.2570   44.2940 C.3    56  GLN56       0.0408
     40  CG        20.7360   25.9960   44.4370 C.3    56  GLN56       0.0908
     41  CD        20.8350   27.2960   45.2190 C.2    56  GLN56       0.2608
     42  OE1       21.9190   27.8510   45.4140 O.2    56  GLN56      -0.2717
     43  NE2       19.6970   27.7920   45.6620 N.am   56  GLN56      -0.0878
     44  N         22.3930   27.3000   41.3980 N.am   57  HIS57      -0.1959
     45  CA        21.7160   27.7170   40.1680 C.3    57  HIS57       0.1787
     46  C         22.6700   27.9870   39.0160 C.2    57  HIS57       0.2620
     47  O         23.6270   28.7670   39.1560 O.2    57  HIS57      -0.2715
     48  CB        20.9230   28.9990   40.3840 C.3    57  HIS57       0.0785
     49  CG        19.7920   28.8590   41.3380 C.ar   57  HIS57       0.0821
     50  ND1       19.8420   29.4190   42.5860 N.ar   57  HIS57      -0.2267
     51  CD2       18.5700   28.3130   41.1380 C.ar   57  HIS57       0.1154
     52  CE1       18.6540   29.2090   43.1180 C.ar   57  HIS57       0.1986
     53  NE2       17.8490   28.5450   42.2790 N.ar   57  HIS57      -0.2212
     54  N         22.3480   27.3950   37.8630 N.am   58  ILE58      -0.1977
     55  CA        23.1210   27.5620   36.6340 C.3    58  ILE58       0.1596
     56  C         22.7360   28.9070   36.0600 C.2    58  ILE58       0.2287
     57  O         21.6200   29.3900   36.2950 O.2    58  ILE58      -0.2864
     58  CB        22.8400   26.4210   35.5850 C.3    58  ILE58       0.0276
     59  CG1       21.3370   26.2870   35.2840 C.3    58  ILE58       0.0022
     60  CG2       23.3910   25.0860   36.0880 C.3    58  ILE58       0.0022
     61  CD1       20.9780   25.1220   34.3610 C.3    58  ILE58       0.0001
     62  N         19.1990   29.6250   34.7710 N.3    61  GLN61      -0.1245
     63  CA        18.1410   29.7720   35.7410 C.3    61  GLN61       0.1566
     64  C         18.0440   31.1850   36.3000 C.2    61  GLN61       0.2260
     65  O         17.0130   31.5470   36.8430 O.2    61  GLN61      -0.2867
     66  CB        18.3410   28.7920   36.8750 C.3    61  GLN61       0.0367
     67  CG        17.8010   27.4090   36.6180 C.3    61  GLN61       0.0905
     68  CD        18.0210   26.5400   37.8370 C.2    61  GLN61       0.2608
     69  OE1       19.1550   26.3480   38.2720 O.2    61  GLN61      -0.2717
     70  NE2       16.9470   26.1020   38.4520 N.am   61  GLN61      -0.0878
     71  N         10.7030   21.8280   45.0030 N.3    88  TRP88      -0.1241
     72  CA        11.7680   21.0390   45.6120 C.3    88  TRP88       0.1605
     73  C         11.3950   21.0190   47.1110 C.2    88  TRP88       0.2264
     74  O         11.2720   22.0770   47.7530 O.2    88  TRP88      -0.2867
     75  CB        13.1300   21.7160   45.4400 C.3    88  TRP88       0.0550
     76  CG        13.6570   21.6160   44.0590 C.ar   88  TRP88       0.0003
     77  CD1       14.1550   20.4960   43.4490 C.ar   88  TRP88       0.0946
     78  CD2       13.7030   22.6620   43.0790 C.ar   88  TRP88       0.0152
     79  NE1       14.5000   20.7770   42.1490 N.ar   88  TRP88      -0.2442
     80  CE2       14.2310   22.0950   41.8940 C.ar   88  TRP88       0.0810
     81  CE3       13.3480   24.0140   43.0910 C.ar   88  TRP88       0.0012
     82  CZ2       14.4090   22.8430   40.7260 C.ar   88  TRP88       0.0191
     83  CZ3       13.5270   24.7520   41.9380 C.ar   88  TRP88       0.0001
     84  CH2       14.0530   24.1630   40.7670 C.ar   88  TRP88       0.0015
     85  N         13.1500   19.8000   49.6460 N.3    90  ASN90      -0.1225
     86  CA        14.2860   19.7230   50.5350 C.3    90  ASN90       0.1785
     87  C         14.6680   21.1130   50.9910 C.2    90  ASN90       0.2597
     88  O         15.8310   21.3720   51.3010 O.2    90  ASN90      -0.2718
     89  CB        15.4600   19.0680   49.8010 C.3    90  ASN90       0.1169
     90  CG        15.8950   19.8470   48.5660 C.2    90  ASN90       0.2627
     91  OD1       15.1640   20.7030   48.0560 O.2    90  ASN90      -0.2716
     92  ND2       17.0890   19.5420   48.0730 N.am   90  ASN90      -0.0877
     93  N         13.6850   22.0030   51.0430 N.am   91  LYS91      -0.1980
     94  CA        13.9020   23.3970   51.4260 C.3    91  LYS91       0.1596
     95  C         12.7170   23.8380   52.2550 C.2    91  LYS91       0.2287
     96  O         11.6070   23.3220   52.0800 O.2    91  LYS91      -0.2864
     97  CB        13.9370   24.2990   50.1740 C.3    91  LYS91       0.0298
     98  CG        15.2130   25.0370   49.9420 C.3    91  LYS91       0.0038
     99  CD        16.1770   24.1510   49.2290 C.3    91  LYS91       0.0206
    100  CE        17.5660   24.7120   49.2920 C.3    91  LYS91       0.1093
    101  NZ        18.3990   24.1310   48.2130 N.3    91  LYS91      -0.1314
@<TRIPOS>BOND
     1    61    59    1
     2    62    63    1
     3    59    58    1
     4    58    60    1
     5    58    55    1
     6    63    64    1
     7    63    66    1
     8    56    57    2
     9    56    55    1
    10    64    65    2
    11    67    66    1
    12    67    68    1
    13    55    54    1
    14    68    69    2
    15    68    70   am
    16    54    46   am
    17    46    47    2
    18    46    45    1
    19    45    48    1
    20    45    44    1
    21    48    49    1
    22    82    84   ar
    23    82    80   ar
    24    84    83   ar
    25     1     2    1
    26    51    49   ar
    27    51    53   ar
    28    49    50   ar
    29    44    37   am
    30    38    37    2
    31    80    79   ar
    32    80    78   ar
    33    83    81   ar
    34    37    36    1
    35    79    77   ar
    36     6     5    1
    37     6     7    1
    38    53    52   ar
    39     2     5    1
    40     2     3    1
    41    32    31    2
    42    50    52   ar
    43     7     8    1
    44    78    81   ar
    45    78    76   ar
    46    36    35    1
    47    36    39    1
    48     4     3    2
    49    31    35   am
    50    31    30    1
    51     3    12   am
    52    77    76   ar
    53    30    29    1
    54    30    33    1
    55    76    75    1
    56    39    40    1
    57    12    13    1
    58     8     9    2
    59    40    41    1
    60    10     9    1
    61    23    22    2
    62    33    34    1
    63    71    72    1
    64    14    13    1
    65    14    15    2
    66    41    42    2
    67    41    43   am
    68     9    11    1
    69    75    72    1
    70    13    16    1
    71    72    73    1
    72    20    21    1
    73    22    21    1
    74    28    26   ar
    75    24    21    1
    76    24    25    1
    77    18    17    2
    78    16    17    1
    79    17    19   am
    80    26    27   ar
    81    26    25    1
    82    73    74    2
    83    91    90    2
    84    92    90   am
    85   101   100    1
    86    90    89    1
    87    99   100    1
    88    99    98    1
    89    85    86    1
    90    89    86    1
    91    98    97    1
    92    97    94    1
    93    86    87    1
    94    87    93   am
    95    87    88    2
    96    93    94    1
    97    94    95    1
    98    96    95    2
