@<TRIPOS>MOLECULE
tmp/1ltkC00.pdb
 149 144 0 0 0
SMALL
GASTEIGER

@<TRIPOS>ATOM
      1  N         18.8120   73.8210   56.0080 N.3   218  GLY218     -0.1210
      2  CA        18.0550   73.0310   56.9700 C.3   218  GLY218      0.1956
      3  C         18.2870   71.5490   56.9750 C.2   218  GLY218      0.2612
      4  O         18.6740   70.9830   55.9630 O.2   218  GLY218     -0.2717
      5  N         18.0110   70.8630   58.0650 N.am  219  ALA219     -0.1965
      6  CA        18.3250   69.4500   58.0380 C.3   219  ALA219      0.1728
      7  C         17.5490   68.5420   57.1190 C.2   219  ALA219      0.2616
      8  O         18.1370   67.7790   56.3470 O.2   219  ALA219     -0.2715
      9  CB        18.2850   68.8940   59.3930 C.3   219  ALA219      0.0334
     10  N         16.2320   68.5800   57.2050 N.am  220  LYS220     -0.1977
     11  CA        15.4540   67.6880   56.3650 C.3   220  LYS220      0.1596
     12  C         14.9500   68.3880   55.1270 C.2   220  LYS220      0.2287
     13  O         15.0690   69.6040   55.0030 O.2   220  LYS220     -0.2864
     14  CB        14.2740   67.1240   57.1680 C.3   220  LYS220      0.0298
     15  CG        13.5770   68.1590   58.0060 C.3   220  LYS220      0.0038
     16  CD        12.7570   67.4870   59.0390 C.3   220  LYS220      0.0206
     17  CE        12.2820   68.5200   60.0270 C.3   220  LYS220      0.1093
     18  NZ        11.5950   67.9130   61.2010 N.3   220  LYS220     -0.1314
     19  N          9.9710   68.3790   55.0890 N.3   223  ASP223     -0.1225
     20  CA         9.1980   69.4740   55.6260 C.3   223  ASP223      0.1805
     21  C          9.4440   70.7410   54.8200 C.2   223  ASP223      0.2597
     22  O          9.2610   71.8300   55.3370 O.2   223  ASP223     -0.2718
     23  CB         9.6020   69.6960   57.0930 C.3   223  ASP223      0.1424
     24  CG        11.0520   70.2010   57.2450 C.2   223  ASP223      0.3668
     25  OD1       11.9260   69.8840   56.3990 O.co2 223  ASP223     -0.2456
     26  OD2       11.3270   70.9100   58.2350 O.co2 223  ASP223     -0.2456
     27  N          9.8610   70.6050   53.5610 N.am  224  LYS224     -0.1979
     28  CA        10.1660   71.7550   52.6880 C.3   224  LYS224      0.1596
     29  C          9.9560   71.4160   51.2150 C.2   224  LYS224      0.2287
     30  O         10.4300   72.1030   50.3180 O.2   224  LYS224     -0.2864
     31  CB        11.6340   72.1800   52.8980 C.3   224  LYS224      0.0298
     32  CG        11.8360   73.4550   53.7630 C.3   224  LYS224      0.0038
     33  CD        13.3200   73.8430   53.8890 C.3   224  LYS224      0.0206
     34  CE        13.9910   73.2120   55.1100 C.3   224  LYS224      0.1093
     35  NZ        13.9690   71.7360   55.0570 N.3   224  LYS224     -0.1314
     36  N         22.8120   72.8610   53.6680 N.3   241  GLY241     -0.1210
     37  CA        22.2880   72.4310   54.9410 C.3   241  GLY241      0.1956
     38  C         22.3020   70.9220   55.0140 C.2   241  GLY241      0.2612
     39  O         22.8120   70.2330   54.0980 O.2   241  GLY241     -0.2717
     40  N         21.7660   70.3820   56.0940 N.am  242  GLY242     -0.1956
     41  CA        21.7580   68.9510   56.1940 C.3   242  GLY242      0.1869
     42  C         21.0530   68.3280   55.0190 C.2   242  GLY242      0.2309
     43  O         21.3750   67.2110   54.5680 O.2   242  GLY242     -0.2863
     44  N         22.8900   66.7310   51.8850 N.3   244  TYR244     -0.1241
     45  CA        23.4140   65.3600   51.8330 C.3   244  TYR244      0.1605
     46  C         22.4730   64.3710   51.1690 C.2   244  TYR244      0.2264
     47  O         22.9150   63.5720   50.3330 O.2   244  TYR244     -0.2867
     48  CB        23.7850   64.8460   53.2330 C.3   244  TYR244      0.0534
     49  CG        24.8840   65.6690   53.8340 C.ar  244  TYR244     -0.0201
     50  CD1       26.2350   65.4510   53.5300 C.ar  244  TYR244     -0.0009
     51  CD2       24.5700   66.7680   54.5980 C.ar  244  TYR244     -0.0009
     52  CE1       27.2320   66.3500   53.9910 C.ar  244  TYR244      0.0417
     53  CE2       25.5400   67.6440   55.0430 C.ar  244  TYR244      0.0417
     54  CZ        26.8500   67.4420   54.7510 C.ar  244  TYR244      0.1957
     55  OH        27.7150   68.3380   55.3010 O.3   244  TYR244     -0.2866
     56  N         23.2660   63.2210   57.9320 N.3   258  LEU258     -0.1245
     57  CA        21.8170   63.1150   58.0310 C.3   258  LEU258      0.1561
     58  C         21.2380   62.7120   56.7180 C.2   258  LEU258      0.2260
     59  O         21.5980   63.2700   55.6830 O.2   258  LEU258     -0.2867
     60  CB        21.1820   64.4490   58.3990 C.3   258  LEU258      0.0270
     61  CG        21.4550   65.0650   59.7630 C.3   258  LEU258      0.0019
     62  CD1       21.0170   66.5350   59.7730 C.3   258  LEU258      0.0001
     63  CD2       20.7280   64.2460   60.8240 C.3   258  LEU258      0.0001
     64  N         29.2440   64.3170   66.6050 N.3   292  PHE292     -0.1241
     65  CA        28.4170   65.4880   66.5560 C.3   292  PHE292      0.1605
     66  C         28.7470   66.3500   67.7550 C.2   292  PHE292      0.2264
     67  O         27.9770   66.4560   68.6800 O.2   292  PHE292     -0.2867
     68  CB        26.9230   65.1140   66.4870 C.3   292  PHE292      0.0534
     69  CG        26.0730   66.1290   65.7520 C.ar  292  PHE292     -0.0203
     70  CD1       25.0180   65.7200   64.9490 C.ar  292  PHE292     -0.0042
     71  CD2       26.3240   67.5030   65.8550 C.ar  292  PHE292     -0.0042
     72  CE1       24.2160   66.6720   64.2540 C.ar  292  PHE292     -0.0003
     73  CE2       25.5260   68.4550   65.1630 C.ar  292  PHE292     -0.0003
     74  CZ        24.4770   68.0350   64.3680 C.ar  292  PHE292     -0.0000
     75  N         29.0640   65.1140   57.6100 N.3   312  GLY312     -0.1210
     76  CA        29.3220   66.4730   57.1720 C.3   312  GLY312      0.1956
     77  C         28.6290   67.4580   58.0860 C.2   312  GLY312      0.2612
     78  O         27.6690   67.1150   58.7230 O.2   312  GLY312     -0.2717
     79  N         29.1140   68.6830   58.1740 N.am  313  LEU313     -0.1965
     80  CA        28.4600   69.6420   59.0430 C.3   313  LEU313      0.1728
     81  C         28.4790   71.0520   58.4760 C.2   313  LEU313      0.2616
     82  O         27.7570   71.9320   58.9980 O.2   313  LEU313     -0.2715
     83  CB        29.0580   69.5970   60.4340 C.3   313  LEU313      0.0311
     84  CG        28.9050   68.2670   61.1740 C.3   313  LEU313      0.0022
     85  CD1       29.7340   68.3280   62.4730 C.3   313  LEU313      0.0001
     86  CD2       27.4640   67.9940   61.4900 C.3   313  LEU313      0.0001
     87  N         29.2930   71.2590   57.4340 N.am  314  ASP314     -0.1971
     88  CA        29.3220   72.5490   56.7600 C.3   314  ASP314      0.1709
     89  C         29.8890   72.4590   55.3650 C.2   314  ASP314      0.2293
     90  O         30.6050   71.5330   55.0520 O.2   314  ASP314     -0.2864
     91  CB        30.0920   73.6060   57.5650 C.3   314  ASP314      0.1436
     92  CG        29.5780   75.0410   57.3010 C.2   314  ASP314      0.3671
     93  OD1       28.5270   75.4340   57.8810 O.co2 314  ASP314     -0.2456
     94  OD2       30.2060   75.7730   56.5040 O.co2 314  ASP314     -0.2456
     95  N         20.0260   78.1220   57.2690 N.3   338  PRO338     -0.2102
     96  CA        21.4790   78.1940   57.3730 C.3   338  PRO338      0.1504
     97  C         22.1060   77.0330   56.6270 C.2   338  PRO338      0.2576
     98  O         21.4570   76.0050   56.4470 O.2   338  PRO338     -0.2718
     99  CB        21.7390   78.1400   58.8910 C.3   338  PRO338      0.0282
    100  CG        20.5610   77.4070   59.4260 C.3   338  PRO338      0.0208
    101  CD        19.4170   78.0200   58.6070 C.3   338  PRO338      0.0893
    102  N         23.3600   77.2130   56.2110 N.am  339  GLN339     -0.1966
    103  CA        24.0540   76.1890   55.4660 C.3   339  GLN339      0.1733
    104  C         24.8670   75.1960   56.2520 C.2   339  GLN339      0.2617
    105  O         25.6010   74.4470   55.6520 O.2   339  GLN339     -0.2715
    106  CB        24.9700   76.8320   54.4540 C.3   339  GLN339      0.0408
    107  CG        24.2970   77.8880   53.6100 C.3   339  GLN339      0.0908
    108  CD        23.2680   77.3060   52.6930 C.2   339  GLN339      0.2608
    109  OE1       23.5880   76.7900   51.6030 O.2   339  GLN339     -0.2717
    110  NE2       22.0270   77.3580   53.1230 N.am  339  GLN339     -0.0878
    111  N         24.7380   75.1800   57.5750 N.am  340  GLY340     -0.1940
    112  CA        25.5010   74.2510   58.4120 C.3   340  GLY340      0.2014
    113  C         25.1100   74.4990   59.8600 C.2   340  GLY340      0.2639
    114  O         24.3470   75.4410   60.1110 O.2   340  GLY340     -0.2714
    115  N         25.5900   73.7010   60.8200 N.am  341  VAL341     -0.1963
    116  CA        25.2260   73.9100   62.2540 C.3   341  VAL341      0.1727
    117  C         25.9110   75.1560   62.8380 C.2   341  VAL341      0.2616
    118  O         26.8790   75.0570   63.6150 O.2   341  VAL341     -0.2715
    119  CB        25.6200   72.6880   63.1220 C.3   341  VAL341      0.0290
    120  CG1       24.6030   72.4560   64.1950 C.3   341  VAL341      0.0023
    121  CG2       25.8050   71.4660   62.2440 C.3   341  VAL341      0.0023
    122  N         25.4050   76.3270   62.4570 N.am  342  PHE342     -0.1960
    123  CA        25.9870   77.5730   62.9200 C.3   342  PHE342      0.1771
    124  C         25.9710   77.7180   64.4410 C.2   342  PHE342      0.2619
    125  O         26.6920   78.5540   64.9890 O.2   342  PHE342     -0.2715
    126  CB        25.3050   78.7790   62.2380 C.3   342  PHE342      0.0574
    127  CG        23.9470   79.0850   62.7590 C.ar  342  PHE342     -0.0200
    128  CD1       23.7060   80.2790   63.4370 C.ar  342  PHE342     -0.0042
    129  CD2       22.8910   78.2030   62.5580 C.ar  342  PHE342     -0.0042
    130  CE1       22.4300   80.6000   63.9090 C.ar  342  PHE342     -0.0003
    131  CE2       21.5970   78.5090   63.0290 C.ar  342  PHE342     -0.0003
    132  CZ        21.3690   79.7110   63.7030 C.ar  342  PHE342     -0.0000
    133  N         25.1520   76.9230   65.1250 N.am  343  GLU343     -0.1977
    134  CA        25.1290   77.0040   66.5720 C.3   343  GLU343      0.1602
    135  C         26.4140   76.4610   67.1320 C.2   343  GLU343      0.2287
    136  O         26.6070   76.4920   68.3400 O.2   343  GLU343     -0.2864
    137  CB        24.0050   76.2010   67.1740 C.3   343  GLU343      0.0415
    138  CG        22.6670   76.7190   66.8690 C.3   343  GLU343      0.1163
    139  CD        22.0690   76.0730   65.6550 C.2   343  GLU343      0.3649
    140  OE1       20.9090   76.4280   65.3870 O.co2 343  GLU343     -0.2457
    141  OE2       22.7240   75.2310   64.9870 O.co2 343  GLU343     -0.2457
    142  N         15.5210   80.2890   62.3050 N.3   373  ASP373     -0.1239
    143  CA        16.9020   79.9190   62.5400 C.3   373  ASP373      0.1674
    144  C         17.8790   80.8100   61.8310 C.2   373  ASP373      0.2266
    145  O         18.8900   81.2010   62.3780 O.2   373  ASP373     -0.2867
    146  CB        17.1130   78.4970   62.1350 C.3   373  ASP373      0.1410
    147  CG        17.4350   77.6260   63.3230 C.2   373  ASP373      0.3668
    148  OD1       16.6910   77.7120   64.3340 O.co2 373  ASP373     -0.2456
    149  OD2       18.4230   76.8600   63.2490 O.co2 373  ASP373     -0.2456
@<TRIPOS>BOND
     1    30    29    2
     2    47    46    2
     3    46    45    1
     4    29    28    1
     5   109   108    2
     6    45    44    1
     7    45    48    1
     8    28    31    1
     9    28    27    1
    10   108   110   am
    11   108   107    1
    12    31    32    1
    13    48    49    1
    14    50    49   ar
    15    50    52   ar
    16    27    21   am
    17   107   106    1
    18    36    37    1
    19    32    33    1
    20    49    51   ar
    21    33    34    1
    22    52    54   ar
    23    39    38    2
    24   106   103    1
    25    43    42    2
    26    51    53   ar
    27    54    53   ar
    28    54    55    1
    29    21    22    2
    30    21    20    1
    31    37    38    1
    32    13    12    2
    33    38    40   am
    34    42    41    1
    35    90    89    2
    36    35    34    1
    37    19    20    1
    38    12    11    1
    39    89    88    1
    40   103   102    1
    41   103   104    1
    42    20    23    1
    43   105   104    2
    44    59    58    2
    45     4     3    2
    46     1     2    1
    47    40    41    1
    48   102    97   am
    49   104   111   am
    50     8     7    2
    51    11    14    1
    52    11    10    1
    53    25    24   ar
    54    98    97    2
    55    94    92   ar
    56    97    96    1
    57    58    57    1
    58    88    87    1
    59    88    91    1
    60     2     3    1
    61     3     5   am
    62    23    24    1
    63     7    10   am
    64     7     6    1
    65    14    15    1
    66    76    75    1
    67    76    77    1
    68    24    26   ar
    69    95    96    1
    70    95   101    1
    71    92    91    1
    72    92    93   ar
    73    96    99    1
    74    87    81   am
    75   111   112    1
    76    56    57    1
    77    15    16    1
    78    57    60    1
    79     6     5    1
    80     6     9    1
    81    77    79   am
    82    77    78    2
    83    79    80    1
    84    60    61    1
    85   112   113    1
    86    81    82    2
    87    81    80    1
    88   101   100    1
    89    99   100    1
    90    16    17    1
    91    80    83    1
    92    61    62    1
    93    61    63    1
    94   113   114    2
    95   113   115   am
    96    17    18    1
    97    83    84    1
    98   115   116    1
    99    84    86    1
   100    84    85    1
   101   144   145    2
   102   144   143    1
   103   146   143    1
   104   146   147    1
   105   126   127    1
   106   126   123    1
   107   121   119    1
   108   116   117    1
   109   116   119    1
   110   142   143    1
   111   122   117   am
   112   122   123    1
   113   129   127   ar
   114   129   131   ar
   115   127   128   ar
   116   117   118    2
   117   123   124    1
   118   131   132   ar
   119   119   120    1
   120   149   147   ar
   121   147   148   ar
   122   128   130   ar
   123   132   130   ar
   124    72    74   ar
   125    72    70   ar
   126    74    73   ar
   127   124   125    2
   128   124   133   am
   129    70    69   ar
   130   141   139   ar
   131   133   134    1
   132    73    71   ar
   133   140   139   ar
   134   139   138    1
   135    69    71   ar
   136    69    68    1
   137    68    65    1
   138    65    64    1
   139    65    66    1
   140   134   135    1
   141   134   137    1
   142   138   137    1
   143   135   136    2
   144    66    67    2
