@<TRIPOS>MOLECULE
tmp/1ltqA00.pdb
 89 84 0 0 0
SMALL
GASTEIGER

@<TRIPOS>ATOM
      1  N         27.2750    6.4960   46.2010 N.3    10  PRO10      -0.2102
      2  CA        27.9990    6.1720   47.4350 C.3    10  PRO10       0.1504
      3  C         29.3330    6.9150   47.5170 C.2    10  PRO10       0.2576
      4  O         30.0190    7.1050   46.5050 O.2    10  PRO10      -0.2718
      5  CB        28.1700    4.6520   47.3550 C.3    10  PRO10       0.0282
      6  CG        27.8650    4.3060   45.8770 C.3    10  PRO10       0.0208
      7  CD        26.7980    5.2810   45.5250 C.3    10  PRO10       0.0893
      8  N         29.6840    7.3550   48.7230 N.am   11  GLY11      -0.1943
      9  CA        30.9330    8.0670   48.9230 C.3    11  GLY11       0.2014
     10  C         30.8510    9.5480   48.6220 C.2    11  GLY11       0.2640
     11  O         31.8640   10.2610   48.6500 O.2    11  GLY11      -0.2714
     12  N         29.6430   10.0300   48.3460 N.am   12  SER12      -0.1935
     13  CA        29.4680   11.4400   48.0100 C.3    12  SER12       0.2055
     14  C         29.4110   12.3670   49.2240 C.2    12  SER12       0.2644
     15  O         29.4010   13.5910   49.0620 O.2    12  SER12      -0.2714
     16  CB        28.2140   11.6220   47.1530 C.3    12  SER12       0.2130
     17  OG        27.0560   11.2220   47.8600 O.3    12  SER12      -0.2179
     18  N         29.3750   11.7940   50.4280 N.am   13  GLY13      -0.1939
     19  CA        29.3390   12.6060   51.6400 C.3    13  GLY13       0.2014
     20  C         27.9950   12.6760   52.3520 C.2    13  GLY13       0.2639
     21  O         27.8150   13.4670   53.2870 O.2    13  GLY13      -0.2714
     22  N         27.0550   11.8380   51.9270 N.am   14  LYS14      -0.1963
     23  CA        25.7100   11.8210   52.4960 C.3    14  LYS14       0.1728
     24  C         25.6580   11.5810   54.0060 C.2    14  LYS14       0.2617
     25  O         24.9850   12.3120   54.7330 O.2    14  LYS14      -0.2715
     26  CB        24.8570   10.7740   51.7660 C.3    14  LYS14       0.0311
     27  CG        24.5870   11.1150   50.3000 C.3    14  LYS14       0.0038
     28  CD        23.8080   10.0190   49.5640 C.3    14  LYS14       0.0206
     29  CE        24.6950    8.8500   49.1110 C.3    14  LYS14       0.1093
     30  NZ        25.0480    7.8810   50.1720 N.3    14  LYS14      -0.1314
     31  N         26.3660   10.5630   54.4780 N.am   15  SER15      -0.1936
     32  CA        26.3710   10.2550   55.9010 C.3    15  SER15       0.2055
     33  C         27.0660   11.3270   56.7300 C.2    15  SER15       0.2643
     34  O         26.5730   11.7210   57.7840 O.2    15  SER15      -0.2714
     35  CB        27.0380    8.9020   56.1450 C.3    15  SER15       0.2130
     36  OG        26.2250    7.8650   55.6330 O.3    15  SER15      -0.2179
     37  N         28.2120   11.7940   56.2550 N.am   16  THR16      -0.1950
     38  CA        28.9560   12.8240   56.9640 C.3    16  THR16       0.1897
     39  C         28.0590   14.0380   57.1580 C.2    16  THR16       0.2313
     40  O         27.9190   14.5480   58.2770 O.2    16  THR16      -0.2863
     41  CB        30.2170   13.2220   56.1760 C.3    16  THR16       0.1794
     42  OG1       31.0370   12.0620   55.9980 O.3    16  THR16      -0.2208
     43  CG2       31.0190   14.2830   56.9220 C.3    16  THR16       0.0378
     44  N         19.0880    9.2580   54.4400 N.3    78  SER78      -0.1217
     45  CA        20.4470    9.3050   53.9310 C.3    78  SER78       0.1889
     46  C         20.8890    8.1850   52.9880 C.2    78  SER78       0.2288
     47  O         22.0220    7.7310   53.0730 O.2    78  SER78      -0.2866
     48  CB        21.4190    9.3980   55.1150 C.3    78  SER78       0.2089
     49  OG        21.1870    8.3510   56.0480 O.3    78  SER78      -0.2183
     50  N         36.2840   11.9200   41.4950 N.3   112  GLU112     -0.1245
     51  CA        36.3570   11.9740   42.9580 C.3   112  GLU112      0.1567
     52  C         35.6270   10.7630   43.5400 C.2   112  GLU112      0.2260
     53  O         36.0510   10.1970   44.5520 O.2   112  GLU112     -0.2867
     54  CB        35.7110   13.2530   43.4950 C.3   112  GLU112      0.0388
     55  CG        36.6870   14.2260   44.1340 C.3   112  GLU112      0.1160
     56  CD        37.4690   13.6090   45.2900 C.2   112  GLU112      0.3649
     57  OE1       36.8510   13.2660   46.3280 O.co2 112  GLU112     -0.2457
     58  OE2       38.7070   13.4660   45.1570 O.co2 112  GLU112     -0.2457
     59  N         37.5830    8.1750   45.9800 N.3   116  ARG116     -0.1245
     60  CA        37.0910    7.8680   47.3180 C.3   116  ARG116      0.1563
     61  C         36.6780    6.4190   47.4770 C.2   116  ARG116      0.2260
     62  O         36.9720    5.7860   48.4980 O.2   116  ARG116     -0.2867
     63  CB        35.8980    8.7510   47.6690 C.3   116  ARG116      0.0307
     64  CG        36.2280   10.2170   47.7820 C.3   116  ARG116      0.0489
     65  CD        34.9700   10.9820   48.1040 C.3   116  ARG116      0.2205
     66  NE        35.1900   12.4170   48.0730 N.pl3 116  ARG116     -0.0865
     67  CZ        34.2360   13.3110   48.2970 C.cat 116  ARG116      0.5346
     68  NH1       33.0050   12.9030   48.5740 N.pl3 116  ARG116      0.1354
     69  NH2       34.5080   14.6070   48.2250 N.pl3 116  ARG116      0.1354
     70  N         37.4600    3.1750   50.2470 N.3   120  ARG120     -0.1245
     71  CA        36.3450    2.8450   51.1250 C.3   120  ARG120      0.1563
     72  C         36.4590    1.5540   51.9470 C.2   120  ARG120      0.2260
     73  O         35.6460    1.3110   52.8510 O.2   120  ARG120     -0.2867
     74  CB        35.0530    2.8270   50.3030 C.3   120  ARG120      0.0307
     75  CG        34.2670    4.1280   50.3510 C.3   120  ARG120      0.0489
     76  CD        33.8910    4.4210   51.7890 C.3   120  ARG120      0.2205
     77  NE        32.7600    5.3290   51.9380 N.pl3 120  ARG120     -0.0865
     78  CZ        31.5790    5.1660   51.3530 C.cat 120  ARG120      0.5346
     79  NH1       30.6110    6.0470   51.5660 N.pl3 120  ARG120      0.1354
     80  NH2       31.3650    4.1410   50.5360 N.pl3 120  ARG120      0.1354
     81  N         33.4720   -1.0880   52.6560 N.3   123  LYS123     -0.1245
     82  CA        32.2700   -0.3980   52.2040 C.3   123  LYS123      0.1561
     83  C         32.4300    0.0280   50.7470 C.2   123  LYS123      0.2260
     84  O         31.5570    0.6890   50.1810 O.2   123  LYS123     -0.2867
     85  CB        32.0000    0.8370   53.0680 C.3   123  LYS123      0.0271
     86  CG        31.9250    0.5280   54.5510 C.3   123  LYS123      0.0035
     87  CD        30.8080    1.2930   55.2430 C.3   123  LYS123      0.0206
     88  CE        31.0010    2.7970   55.1710 C.3   123  LYS123      0.1093
     89  NZ        29.8900    3.4970   55.8890 N.3   123  LYS123     -0.1314
@<TRIPOS>BOND
     1    50    51    1
     2    51    54    1
     3    51    52    1
     4    54    55    1
     5    52    53    2
     6    55    56    1
     7    58    56   ar
     8    56    57   ar
     9     7     6    1
    10     7     1    1
    11     6     5    1
    12    59    60    1
    13     1     2    1
    14     4     3    2
    15    16    17    1
    16    16    13    1
    17    60    61    1
    18    60    63    1
    19     5     2    1
    20     2     3    1
    21    61    62    2
    22     3     8   am
    23    63    64    1
    24    64    65    1
    25    13    12    1
    26    13    14    1
    27    66    65    1
    28    66    67    2
    29    69    67    1
    30    67    68    1
    31    12    10   am
    32    10    11    2
    33    10     9    1
    34     8     9    1
    35    15    14    2
    36    29    28    1
    37    29    30    1
    38    14    18   am
    39    28    27    1
    40    84    83    2
    41    70    71    1
    42    27    26    1
    43    74    75    1
    44    74    71    1
    45    75    76    1
    46    18    19    1
    47    80    78    1
    48    83    82    1
    49    71    72    1
    50    78    79    1
    51    78    77    2
    52    19    20    1
    53    26    23    1
    54    76    77    1
    55    22    20   am
    56    22    23    1
    57    72    73    2
    58    82    81    1
    59    82    85    1
    60    20    21    2
    61    23    24    1
    62    46    47    2
    63    46    45    1
    64    85    86    1
    65    45    44    1
    66    45    48    1
    67    24    31   am
    68    24    25    2
    69    31    32    1
    70    86    87    1
    71    48    49    1
    72    88    87    1
    73    88    89    1
    74    36    35    1
    75    32    35    1
    76    32    33    1
    77    42    41    1
    78    41    43    1
    79    41    38    1
    80    37    33   am
    81    37    38    1
    82    33    34    2
    83    38    39    1
    84    39    40    2
