@<TRIPOS>MOLECULE
tmp/1ltxB00.pdb
 193 193 0 0 0
SMALL
GASTEIGER

@<TRIPOS>ATOM
      1  N         68.5930   64.2410   32.0680 N.3    38  TYR38      -0.1227
      2  CA        68.5420   64.9690   30.8140 C.3    38  TYR38       0.1736
      3  C         67.1250   65.0400   30.2260 C.2    38  TYR38       0.2595
      4  O         66.7450   66.0600   29.6580 O.2    38  TYR38      -0.2718
      5  CB        69.5000   64.3420   29.7980 C.3    38  TYR38       0.0548
      6  CG        69.1910   64.7390   28.3780 C.ar   38  TYR38      -0.0200
      7  CD1       69.2390   66.0750   27.9750 C.ar   38  TYR38      -0.0009
      8  CD2       68.7850   63.7830   27.4510 C.ar   38  TYR38      -0.0009
      9  CE1       68.8790   66.4410   26.6810 C.ar   38  TYR38       0.0417
     10  CE2       68.4260   64.1350   26.1660 C.ar   38  TYR38       0.0417
     11  CZ        68.4700   65.4590   25.7820 C.ar   38  TYR38       0.1957
     12  OH        68.0930   65.7860   24.5000 O.3    38  TYR38      -0.2866
     13  N         66.3390   63.9740   30.3550 N.am   39  TRP39      -0.1976
     14  CA        64.9820   64.0010   29.8150 C.3    39  TRP39       0.1640
     15  C         64.1000   64.8970   30.6730 C.2    39  TRP39       0.2290
     16  O         63.3910   65.7590   30.1580 O.2    39  TRP39      -0.2864
     17  CB        64.3730   62.5950   29.7590 C.3    39  TRP39       0.0576
     18  CG        65.1580   61.6240   28.9290 C.ar   39  TRP39       0.0006
     19  CD1       65.7970   61.8750   27.7440 C.ar   39  TRP39       0.0946
     20  CD2       65.4010   60.2460   29.2270 C.ar   39  TRP39       0.0152
     21  NE1       66.4290   60.7400   27.2910 N.ar   39  TRP39      -0.2442
     22  CE2       66.2000   59.7250   28.1830 C.ar   39  TRP39       0.0810
     23  CE3       65.0220   59.3990   30.2770 C.ar   39  TRP39       0.0012
     24  CZ2       66.6270   58.3920   28.1610 C.ar   39  TRP39       0.0191
     25  CZ3       65.4460   58.0800   30.2530 C.ar   39  TRP39       0.0001
     26  CH2       66.2410   57.5890   29.2020 C.ar   39  TRP39       0.0015
     27  N         76.8280   57.7100   25.3720 N.3    83  LEU83      -0.1245
     28  CA        75.4560   58.1210   25.6370 C.3    83  LEU83       0.1561
     29  C         75.3590   59.0950   26.8070 C.2    83  LEU83       0.2260
     30  O         74.9150   60.2310   26.6370 O.2    83  LEU83      -0.2867
     31  CB        74.5710   56.8970   25.9050 C.3    83  LEU83       0.0270
     32  CG        74.4220   55.8930   24.7510 C.3    83  LEU83       0.0019
     33  CD1       73.6280   54.6720   25.2090 C.3    83  LEU83       0.0001
     34  CD2       73.7370   56.5560   23.5760 C.3    83  LEU83       0.0001
     35  N         77.0730   62.3910   26.2920 N.3    86  LEU86      -0.1231
     36  CA        76.2670   63.3550   25.5590 C.3    86  LEU86       0.1693
     37  C         75.1740   63.9200   26.4370 C.2    86  LEU86       0.2592
     38  O         74.9590   65.1270   26.4660 O.2    86  LEU86      -0.2718
     39  CB        75.6190   62.7170   24.3370 C.3    86  LEU86       0.0284
     40  CG        74.5550   63.6210   23.7040 C.3    86  LEU86       0.0019
     41  CD1       75.2010   64.8950   23.1760 C.3    86  LEU86       0.0001
     42  CD2       73.8540   62.8760   22.5880 C.3    86  LEU86       0.0001
     43  N         74.4770   63.0450   27.1490 N.am   87  SER87      -0.1952
     44  CA        73.3960   63.4830   28.0240 C.3    87  SER87       0.1924
     45  C         73.8820   64.5370   28.9980 C.2    87  SER87       0.2314
     46  O         73.1810   65.5000   29.2900 O.2    87  SER87      -0.2863
     47  CB        72.8290   62.2970   28.8030 C.3    87  SER87       0.2116
     48  OG        72.2750   61.3500   27.9150 O.3    87  SER87      -0.2180
     49  N         74.7240   67.9320   27.4270 N.3    90  GLN90      -0.1245
     50  CA        73.4410   68.5870   27.1860 C.3    90  GLN90       0.1566
     51  C         72.9190   69.2190   28.4730 C.2    90  GLN90       0.2260
     52  O         72.5050   70.3800   28.4860 O.2    90  GLN90      -0.2867
     53  CB        72.4140   67.5750   26.6750 C.3    90  GLN90       0.0367
     54  CG        72.6470   67.0830   25.2510 C.3    90  GLN90       0.0905
     55  CD        71.7620   65.8950   24.8940 C.2    90  GLN90       0.2608
     56  OE1       71.3900   65.7160   23.7370 O.2    90  GLN90      -0.2717
     57  NE2       71.4350   65.0730   25.8890 N.am   90  GLN90      -0.0878
     58  N         74.0480   54.9240   16.3230 N.3   131  ARG131     -0.1245
     59  CA        73.4060   55.5360   17.4720 C.3   131  ARG131      0.1563
     60  C         74.4920   56.3350   18.2090 C.2   131  ARG131      0.2260
     61  O         74.2210   57.3580   18.8440 O.2   131  ARG131     -0.2867
     62  CB        72.8620   54.4070   18.3530 C.3   131  ARG131      0.0307
     63  CG        71.7100   54.7360   19.2780 C.3   131  ARG131      0.0489
     64  CD        70.9080   53.4470   19.5460 C.3   131  ARG131      0.2205
     65  NE        71.7410   52.3840   20.1100 N.pl3 131  ARG131     -0.0865
     66  CZ        71.9960   52.2400   21.4080 C.cat 131  ARG131      0.5346
     67  NH1       71.4730   53.0840   22.2950 N.pl3 131  ARG131      0.1354
     68  NH2       72.8000   51.2670   21.8160 N.pl3 131  ARG131      0.1354
     69  N         76.1210   59.4990   16.4170 N.3   134  PHE134     -0.1227
     70  CA        75.3630   60.6990   16.6930 C.3   134  PHE134      0.1736
     71  C         75.8790   61.3250   17.9720 C.2   134  PHE134      0.2595
     72  O         76.2440   62.4980   17.9920 O.2   134  PHE134     -0.2718
     73  CB        73.8780   60.3900   16.8540 C.3   134  PHE134      0.0547
     74  CG        73.0490   61.6120   17.0960 C.ar  134  PHE134     -0.0202
     75  CD1       72.7290   62.4680   16.0510 C.ar  134  PHE134     -0.0042
     76  CD2       72.6450   61.9500   18.3790 C.ar  134  PHE134     -0.0042
     77  CE1       72.0340   63.6520   16.2840 C.ar  134  PHE134     -0.0003
     78  CE2       71.9510   63.1330   18.6230 C.ar  134  PHE134     -0.0003
     79  CZ        71.6420   63.9810   17.5750 C.ar  134  PHE134     -0.0000
     80  N         75.9140   60.5340   19.0380 N.am  135  CYS135     -0.1970
     81  CA        76.3800   61.0260   20.3260 C.3   135  CYS135      0.1712
     82  C         77.7240   61.7370   20.2390 C.2   135  CYS135      0.2296
     83  O         77.9340   62.7570   20.8910 O.2   135  CYS135     -0.2864
     84  CB        76.4640   59.8720   21.3230 C.3   135  CYS135      0.0983
     85  SG        74.8580   59.1520   21.7110 S.3   135  CYS135     -0.0798
     86  N         65.3730   51.7430   10.7350 N.3   177  HIS177     -0.1241
     87  CA        64.6040   51.8810   11.9600 C.3   177  HIS177      0.1621
     88  C         64.4460   53.3770   12.2410 C.2   177  HIS177      0.2264
     89  O         65.3410   54.1500   11.9370 O.2   177  HIS177     -0.2867
     90  CB        65.3760   51.1720   13.0760 C.3   177  HIS177      0.0745
     91  CG        64.8310   51.3880   14.4490 C.ar  177  HIS177      0.0817
     92  ND1       63.4790   51.5270   14.7080 N.ar  177  HIS177     -0.2268
     93  CD2       65.4430   51.4250   15.6560 C.ar  177  HIS177      0.1154
     94  CE1       63.2900   51.6370   16.0070 C.ar  177  HIS177      0.1986
     95  NE2       64.4680   51.5780   16.6100 N.ar  177  HIS177     -0.2212
     96  N         64.4140   55.2510   15.1160 N.3   179  GLY179     -0.1210
     97  CA        65.3700   55.8430   16.0290 C.3   179  GLY179      0.1956
     98  C         66.7480   55.9710   15.4210 C.2   179  GLY179      0.2611
     99  O         67.5260   56.8390   15.8080 O.2   179  GLY179     -0.2717
    100  N         67.0510   55.1120   14.4580 N.am  180  GLN180     -0.1979
    101  CA        68.3550   55.1310   13.8150 C.3   180  GLN180      0.1601
    102  C         68.3950   56.1540   12.6870 C.2   180  GLN180      0.2287
    103  O         69.4660   56.6150   12.2940 O.2   180  GLN180     -0.2864
    104  CB        68.6970   53.7290   13.2900 C.3   180  GLN180      0.0394
    105  CG        68.7680   52.6590   14.3910 C.3   180  GLN180      0.0908
    106  CD        70.0030   52.7940   15.2580 C.2   180  GLN180      0.2608
    107  OE1       70.0420   52.3050   16.3930 O.2   180  GLN180     -0.2717
    108  NE2       71.0300   53.4470   14.7230 N.am  180  GLN180     -0.0878
    109  N         66.8410   59.0480   12.9650 N.3   182  TYR182     -0.1227
    110  CA        67.0120   60.3050   13.6750 C.3   182  TYR182      0.1736
    111  C         68.4980   60.5970   13.8860 C.2   182  TYR182      0.2595
    112  O         68.9820   61.6760   13.5490 O.2   182  TYR182     -0.2718
    113  CB        66.3040   60.2580   15.0320 C.3   182  TYR182      0.0548
    114  CG        66.7110   61.3840   15.9510 C.ar  182  TYR182     -0.0200
    115  CD1       66.5560   62.7150   15.5640 C.ar  182  TYR182     -0.0009
    116  CD2       67.2640   61.1230   17.2010 C.ar  182  TYR182     -0.0009
    117  CE1       66.9430   63.7610   16.4000 C.ar  182  TYR182      0.0417
    118  CE2       67.6540   62.1600   18.0490 C.ar  182  TYR182      0.0417
    119  CZ        67.4900   63.4760   17.6400 C.ar  182  TYR182      0.1957
    120  OH        67.8700   64.5060   18.4660 O.3   182  TYR182     -0.2866
    121  N         69.2180   59.6280   14.4420 N.am  183  CYS183     -0.1970
    122  CA        70.6390   59.7840   14.7020 C.3   183  CYS183      0.1712
    123  C         71.4560   60.0750   13.4540 C.2   183  CYS183      0.2296
    124  O         72.3860   60.8760   13.4850 O.2   183  CYS183     -0.2864
    125  CB        71.1890   58.5240   15.3550 C.3   183  CYS183      0.0983
    126  SG        70.4230   58.1130   16.9030 S.3   183  CYS183     -0.0798
    127  N         58.3030   61.7420   18.2890 N.3   230  TRP230     -0.1227
    128  CA        59.4610   62.6120   18.2410 C.3   230  TRP230      0.1737
    129  C         60.4340   62.1400   17.1720 C.2   230  TRP230      0.2595
    130  O         60.7010   62.8570   16.2120 O.2   230  TRP230     -0.2718
    131  CB        60.1780   62.6640   19.5920 C.3   230  TRP230      0.0564
    132  CG        61.5950   63.1790   19.4710 C.ar  230  TRP230      0.0003
    133  CD1       62.7420   62.4360   19.5050 C.ar  230  TRP230      0.0946
    134  CD2       62.0020   64.5250   19.1950 C.ar  230  TRP230      0.0152
    135  NE1       63.8370   63.2310   19.2610 N.ar  230  TRP230     -0.2442
    136  CE2       63.4130   64.5180   19.0650 C.ar  230  TRP230      0.0810
    137  CE3       61.3150   65.7360   19.0370 C.ar  230  TRP230      0.0012
    138  CZ2       64.1490   65.6780   18.7850 C.ar  230  TRP230      0.0191
    139  CZ3       62.0490   66.8920   18.7570 C.ar  230  TRP230      0.0001
    140  CH2       63.4530   66.8510   18.6340 C.ar  230  TRP230      0.0015
    141  N         60.9430   60.9230   17.3310 N.am  231  TRP231     -0.1976
    142  CA        61.9080   60.3690   16.3900 C.3   231  TRP231      0.1640
    143  C         61.5480   60.4130   14.9230 C.2   231  TRP231      0.2290
    144  O         62.4330   60.5470   14.0780 O.2   231  TRP231     -0.2864
    145  CB        62.2810   58.9430   16.7890 C.3   231  TRP231      0.0576
    146  CG        63.2500   58.9510   17.9180 C.ar  231  TRP231      0.0006
    147  CD1       64.2950   59.8140   18.0900 C.ar  231  TRP231      0.0946
    148  CD2       63.2630   58.0800   19.0420 C.ar  231  TRP231      0.0152
    149  NE1       64.9580   59.5360   19.2580 N.ar  231  TRP231     -0.2442
    150  CE2       64.3490   58.4730   19.8640 C.ar  231  TRP231      0.0810
    151  CE3       62.4680   57.0030   19.4400 C.ar  231  TRP231      0.0012
    152  CZ2       64.6570   57.8280   21.0610 C.ar  231  TRP231      0.0191
    153  CZ3       62.7740   56.3580   20.6350 C.ar  231  TRP231      0.0001
    154  CH2       63.8640   56.7750   21.4300 C.ar  231  TRP231      0.0015
    155  N         60.8280   59.5660   30.0810 N.3   276  PHE276     -0.1241
    156  CA        61.3060   59.3610   28.7130 C.3   276  PHE276      0.1605
    157  C         60.2480   59.7590   27.6930 C.2   276  PHE276      0.2264
    158  O         60.5400   60.4590   26.7290 O.2   276  PHE276     -0.2867
    159  CB        61.7060   57.8970   28.5050 C.3   276  PHE276      0.0534
    160  CG        62.1230   57.5650   27.0920 C.ar  276  PHE276     -0.0203
    161  CD1       61.1790   57.4180   26.0860 C.ar  276  PHE276     -0.0042
    162  CD2       63.4620   57.3620   26.7800 C.ar  276  PHE276     -0.0042
    163  CE1       61.5650   57.0790   24.7980 C.ar  276  PHE276     -0.0003
    164  CE2       63.8530   57.0220   25.4920 C.ar  276  PHE276     -0.0003
    165  CZ        62.9050   56.8760   24.5040 C.ar  276  PHE276     -0.0000
    166  N         59.4740   63.2410   24.9440 N.3   280  PHE280     -0.1241
    167  CA        59.1540   63.0760   23.5400 C.3   280  PHE280      0.1605
    168  C         57.7170   63.4020   23.1770 C.2   280  PHE280      0.2264
    169  O         57.3950   63.5800   22.0070 O.2   280  PHE280     -0.2867
    170  CB        59.5540   61.6730   23.1070 C.3   280  PHE280      0.0534
    171  CG        61.0260   61.4240   23.2440 C.ar  280  PHE280     -0.0203
    172  CD1       61.9400   62.2750   22.6260 C.ar  280  PHE280     -0.0042
    173  CD2       61.5070   60.3900   24.0240 C.ar  280  PHE280     -0.0042
    174  CE1       63.3080   62.0990   22.7820 C.ar  280  PHE280     -0.0003
    175  CE2       62.8790   60.2060   24.1870 C.ar  280  PHE280     -0.0003
    176  CZ        63.7780   61.0670   23.5620 C.ar  280  PHE280     -0.0000
    177  N         69.1410   68.3270   18.4110 N.3   300  PHE300     -0.1227
    178  CA        69.7150   68.0730   19.7330 C.3   300  PHE300      0.1736
    179  C         68.6490   67.8220   20.7940 C.2   300  PHE300      0.2595
    180  O         68.9690   67.5850   21.9580 O.2   300  PHE300     -0.2718
    181  CB        70.6060   69.2430   20.1880 C.3   300  PHE300      0.0547
    182  CG        71.8030   69.4690   19.3150 C.ar  300  PHE300     -0.0202
    183  CD1       71.6980   70.2100   18.1460 C.ar  300  PHE300     -0.0042
    184  CD2       73.0260   68.8920   19.6320 C.ar  300  PHE300     -0.0042
    185  CE1       72.7930   70.3660   17.2960 C.ar  300  PHE300     -0.0003
    186  CE2       74.1290   69.0400   18.7860 C.ar  300  PHE300     -0.0003
    187  CZ        74.0120   69.7780   17.6170 C.ar  300  PHE300     -0.0000
    188  N         67.3860   67.8680   20.3890 N.am  301  CYS301     -0.1970
    189  CA        66.2760   67.6620   21.3100 C.3   301  CYS301      0.1712
    190  C         66.4420   68.5020   22.5760 C.2   301  CYS301      0.2296
    191  O         66.3210   68.0030   23.6920 O.2   301  CYS301     -0.2864
    192  CB        66.1480   66.1810   21.6800 C.3   301  CYS301      0.0983
    193  SG        64.5790   65.7510   22.5120 S.3   301  CYS301     -0.0798
@<TRIPOS>BOND
     1    86    87    1
     2    89    88    2
     3    87    88    1
     4    87    90    1
     5   103   102    2
     6   102   101    1
     7   109   110    1
     8    90    91    1
     9   104   101    1
    10   104   105    1
    11   123   124    2
    12   123   122    1
    13   112   111    2
    14   110   111    1
    15   110   113    1
    16   101   100    1
    17   111   121   am
    18   144   143    2
    19   105   106    1
    20   121   122    1
    21    91    92   ar
    22    91    93   ar
    23   100    98   am
    24   122   125    1
    25    92    94   ar
    26   108   106   am
    27   143   142    1
    28   113   114    1
    29    96    97    1
    30   106   107    2
    31   125   126    1
    32    98    99    2
    33    98    97    1
    34   115   114   ar
    35   115   117   ar
    36    93    95   ar
    37   114   116   ar
    38    94    95   ar
    39    75    77   ar
    40    75    74   ar
    41   130   129    2
    42    77    79   ar
    43    58    59    1
    44   142   145    1
    45   142   141    1
    46   117   119   ar
    47    69    70    1
    48    70    73    1
    49    70    71    1
    50   145   146    1
    51    73    74    1
    52    74    76   ar
    53   129   141   am
    54   129   128    1
    55   116   118   ar
    56   185   187   ar
    57   185   183   ar
    58    59    60    1
    59    59    62    1
    60    79    78   ar
    61   187   186   ar
    62   119   118   ar
    63   119   120    1
    64   146   147   ar
    65   146   148   ar
    66    71    72    2
    67    71    80   am
    68   147   149   ar
    69   183   182   ar
    70    60    61    2
    71   128   127    1
    72   128   131    1
    73    62    63    1
    74    76    78   ar
    75   177   178    1
    76   140   139   ar
    77   140   138   ar
    78   139   137   ar
    79   138   136   ar
    80   186   184   ar
    81   137   134   ar
    82    80    81    1
    83   148   151   ar
    84   148   150   ar
    85   136   134   ar
    86   136   135   ar
    87   134   132   ar
    88   149   150   ar
    89   135   133   ar
    90    63    64    1
    91   182   184   ar
    92   182   181    1
    93   151   153   ar
    94   132   133   ar
    95   132   131    1
    96    64    65    1
    97   178   181    1
    98   178   179    1
    99   150   152   ar
   100    65    66    2
   101    82    81    1
   102    82    83    2
   103    81    84    1
   104   188   179   am
   105   188   189    1
   106   153   154   ar
   107   179   180    2
   108   152   154   ar
   109   189   192    1
   110   189   190    1
   111    84    85    1
   112    66    68    1
   113    66    67    1
   114   192   193    1
   115   169   168    2
   116   190   191    2
   117    42    40    1
   118   172   174   ar
   119   172   171   ar
   120   174   176   ar
   121   170   171    1
   122   170   167    1
   123    41    40    1
   124   168   167    1
   125   171   173   ar
   126   167   166    1
   127   176   175   ar
   128    34    32    1
   129    40    39    1
   130    56    55    2
   131   173   175   ar
   132    39    36    1
   133    12    11    1
   134   165   163   ar
   135   165   164   ar
   136    32    33    1
   137    32    31    1
   138   163   161   ar
   139    55    54    1
   140    55    57   am
   141    54    53    1
   142    27    28    1
   143   164   162   ar
   144    36    35    1
   145    36    37    1
   146    28    31    1
   147    28    29    1
   148    11    10   ar
   149    11     9   ar
   150   161   160   ar
   151    10     8   ar
   152    37    38    2
   153    37    43   am
   154    30    29    2
   155    53    50    1
   156     9     7   ar
   157   158   157    2
   158   162   160   ar
   159   160   159    1
   160    43    44    1
   161    50    49    1
   162    50    51    1
   163    21    19   ar
   164    21    22   ar
   165     8     6   ar
   166   157   156    1
   167    19    18   ar
   168    48    47    1
   169     7     6   ar
   170    44    47    1
   171    44    45    1
   172    24    22   ar
   173    24    26   ar
   174    22    20   ar
   175     6     5    1
   176    51    52    2
   177   159   156    1
   178   156   155    1
   179    18    20   ar
   180    18    17    1
   181    45    46    2
   182    26    25   ar
   183    20    23   ar
   184     4     3    2
   185    17    14    1
   186     5     2    1
   187    14    13    1
   188    14    15    1
   189    16    15    2
   190     3    13   am
   191     3     2    1
   192    25    23   ar
   193     2     1    1
