@<TRIPOS>MOLECULE
tmp/1ltzA00.pdb
 175 170 0 0 0
SMALL
GASTEIGER

@<TRIPOS>ATOM
      1  N        -12.0250   15.2210   36.7430 N.3    92  VAL92      -0.1245
      2  CA       -13.1540   14.2590   36.7840 C.3    92  VAL92       0.1561
      3  C        -12.5950   12.9330   37.2800 C.2    92  VAL92       0.2260
      4  O        -11.3850   12.6530   37.2340 O.2    92  VAL92      -0.2867
      5  CB       -13.9180   14.1560   35.4580 C.3    92  VAL92       0.0252
      6  CG1      -14.5810   15.5200   35.2000 C.3    92  VAL92       0.0019
      7  CG2      -13.0680   13.7460   34.2660 C.3    92  VAL92       0.0019
      8  N        -13.0040   10.0140   36.0750 N.3    94  GLY94      -0.1210
      9  CA       -12.8030    9.0580   34.9750 C.3    94  GLY94       0.1956
     10  C        -13.8560    9.3810   33.9130 C.2    94  GLY94       0.2612
     11  O        -14.2380   10.5640   33.8140 O.2    94  GLY94      -0.2717
     12  N        -14.3230    8.3860   33.1680 N.am   95  LEU95      -0.1965
     13  CA       -15.3650    8.5950   32.1650 C.3    95  LEU95       0.1728
     14  C        -16.6290    9.1940   32.7760 C.2    95  LEU95       0.2616
     15  O        -17.0390    8.7060   33.8260 O.2    95  LEU95      -0.2715
     16  CB       -15.7270    7.2890   31.4390 C.3    95  LEU95       0.0311
     17  CG       -14.7120    6.8550   30.3810 C.3    95  LEU95       0.0022
     18  CD1      -14.9930    5.4240   29.9320 C.3    95  LEU95       0.0001
     19  CD2      -14.7070    7.8150   29.1970 C.3    95  LEU95       0.0001
     20  N        -17.2240   10.2070   32.1380 N.am   96  ILE96      -0.1977
     21  CA       -18.4500   10.8340   32.6520 C.3    96  ILE96       0.1596
     22  C        -19.5420   10.7120   31.5980 C.2    96  ILE96       0.2287
     23  O        -19.2670   10.4710   30.4050 O.2    96  ILE96      -0.2864
     24  CB       -18.2030   12.3180   32.9830 C.3    96  ILE96       0.0276
     25  CG1      -17.8900   13.1940   31.7720 C.3    96  ILE96       0.0022
     26  CG2      -17.1170   12.4310   34.0340 C.3    96  ILE96       0.0022
     27  CD1      -17.4360   14.6230   32.0500 C.3    96  ILE96       0.0001
     28  N        -22.1030   11.2520   28.6220 N.3    98  ASP98      -0.1239
     29  CA       -21.9800   12.0280   27.3890 C.3    98  ASP98       0.1674
     30  C        -22.5880   13.4180   27.5420 C.2    98  ASP98       0.2266
     31  O        -21.9460   14.3790   27.1070 O.2    98  ASP98      -0.2867
     32  CB       -22.6560   11.3490   26.2010 C.3    98  ASP98       0.1410
     33  CG       -22.0270   10.0730   25.6800 C.2    98  ASP98       0.3668
     34  OD1      -21.0520    9.5910   26.2810 O.co2  98  ASP98      -0.2456
     35  OD2      -22.5440    9.5410   24.6500 O.co2  98  ASP98      -0.2456
     36  N        -20.2870   15.6310   29.6230 N.3   101  PHE101     -0.1227
     37  CA       -19.1410   15.9040   28.7470 C.3   101  PHE101      0.1736
     38  C        -19.4200   17.0050   27.7390 C.2   101  PHE101      0.2595
     39  O        -18.6290   17.9550   27.6590 O.2   101  PHE101     -0.2718
     40  CB       -18.7740   14.6050   28.0350 C.3   101  PHE101      0.0547
     41  CG       -17.4960   14.7230   27.2420 C.ar  101  PHE101     -0.0202
     42  CD1      -16.2720   14.6620   27.8800 C.ar  101  PHE101     -0.0042
     43  CD2      -17.5060   14.8630   25.8730 C.ar  101  PHE101     -0.0042
     44  CE1      -15.0810   14.7210   27.1970 C.ar  101  PHE101     -0.0003
     45  CE2      -16.3230   14.9580   25.1670 C.ar  101  PHE101     -0.0003
     46  CZ       -15.1000   14.8980   25.8230 C.ar  101  PHE101     -0.0000
     47  N        -20.5040   16.9230   26.9660 N.am  102  PHE102     -0.1976
     48  CA       -20.8130   17.9720   26.0230 C.3   102  PHE102      0.1639
     49  C        -20.9870   19.3380   26.6920 C.2   102  PHE102      0.2290
     50  O        -20.5780   20.3500   26.1390 O.2   102  PHE102     -0.2864
     51  CB       -22.1000   17.6700   25.2860 C.3   102  PHE102      0.0560
     52  CG       -22.1520   16.4180   24.4410 C.ar  102  PHE102     -0.0200
     53  CD1      -23.3190   15.6710   24.3950 C.ar  102  PHE102     -0.0042
     54  CD2      -21.0760   15.9840   23.6920 C.ar  102  PHE102     -0.0042
     55  CE1      -23.3980   14.5290   23.6090 C.ar  102  PHE102     -0.0003
     56  CE2      -21.1600   14.8430   22.9220 C.ar  102  PHE102     -0.0003
     57  CZ       -22.3190   14.1080   22.8730 C.ar  102  PHE102     -0.0000
     58  N        -12.4340   21.4400   29.6730 N.3   110  PHE110     -0.1228
     59  CA       -11.9850   20.1620   29.1760 C.3   110  PHE110      0.1721
     60  C        -11.8470   19.2050   30.3490 C.2   110  PHE110      0.2437
     61  O        -10.9590   19.4040   31.2160 O.2   110  PHE110     -0.2733
     62  CB       -10.6970   20.2670   28.3470 C.3   110  PHE110      0.0547
     63  CG       -10.4460   18.9590   27.6160 C.ar  110  PHE110     -0.0202
     64  CD1      -11.0520   18.8030   26.3860 C.ar  110  PHE110     -0.0042
     65  CD2       -9.6810   17.9440   28.1650 C.ar  110  PHE110     -0.0042
     66  CE1      -10.9070   17.6140   25.7050 C.ar  110  PHE110     -0.0003
     67  CE2       -9.5500   16.7640   27.4780 C.ar  110  PHE110     -0.0003
     68  CZ       -10.1670   16.5790   26.2430 C.ar  110  PHE110     -0.0000
     69  N        -12.6850   18.1850   30.4240 N.am  111  PRO111     -0.2729
     70  CA       -12.5750   17.2360   31.5350 C.3   111  PRO111      0.1401
     71  C        -11.3430   16.3280   31.4240 C.2   111  PRO111      0.2269
     72  O        -11.1390   15.7150   30.3880 O.2   111  PRO111     -0.2865
     73  CB       -13.8440   16.3820   31.4360 C.3   111  PRO111      0.0296
     74  CG       -14.7580   17.1170   30.5290 C.3   111  PRO111      0.0237
     75  CD       -13.8430   17.8560   29.5850 C.3   111  PRO111      0.0939
     76  N         -9.3330   13.1710   33.4010 N.3   113  THR113     -0.1218
     77  CA        -9.2680   12.1560   34.4740 C.3   113  THR113      0.1862
     78  C         -8.0840   12.4350   35.3770 C.2   113  THR113      0.2287
     79  O         -6.9700   12.5520   34.8550 O.2   113  THR113     -0.2866
     80  CB        -9.0900   10.7790   33.8100 C.3   113  THR113      0.1770
     81  OG1      -10.2920   10.4900   33.0660 O.3   113  THR113     -0.2211
     82  CG2       -8.9000    9.6970   34.8680 C.3   113  THR113      0.0375
     83  N         -9.4780    6.8100   29.5050 N.3   128  PRO128     -0.2116
     84  CA        -8.5160    7.8830   29.7030 C.3   128  PRO128      0.1372
     85  C         -7.8880    7.8390   31.1080 C.2   128  PRO128      0.2244
     86  O         -8.4770    7.3670   32.0780 O.2   128  PRO128     -0.2868
     87  CB        -9.4090    9.1080   29.5670 C.3   128  PRO128      0.0268
     88  CG       -10.6760    8.6930   28.9680 C.3   128  PRO128      0.0207
     89  CD       -10.8520    7.2110   29.1940 C.3   128  PRO128      0.0892
     90  N         -3.0180   10.5540   29.2200 N.3   132  HIS132     -0.1226
     91  CA        -3.7020   10.6570   27.9250 C.3   132  HIS132      0.1752
     92  C         -4.4470   11.9870   27.8230 C.2   132  HIS132      0.2596
     93  O         -4.4180   12.6230   26.7600 O.2   132  HIS132     -0.2718
     94  CB        -4.6640    9.4720   27.7410 C.3   132  HIS132      0.0759
     95  CG        -5.6890    9.7600   26.6850 C.ar  132  HIS132      0.0818
     96  ND1       -5.3310    9.7520   25.3320 N.ar  132  HIS132     -0.2268
     97  CD2       -6.9900   10.0770   26.7360 C.ar  132  HIS132      0.1154
     98  CE1       -6.3880   10.0450   24.5950 C.ar  132  HIS132      0.1986
     99  NE2       -7.4170   10.2620   25.4130 N.ar  132  HIS132     -0.2212
    100  N         -5.1320   12.4140   28.8970 N.am  133  ASP133     -0.1974
    101  CA        -5.9560   13.6170   28.7490 C.3   133  ASP133      0.1709
    102  C         -5.1230   14.8860   28.6990 C.2   133  ASP133      0.2293
    103  O         -5.3020   15.7740   27.8390 O.2   133  ASP133     -0.2864
    104  CB        -6.9590   13.6770   29.9150 C.3   133  ASP133      0.1436
    105  CG        -8.2120   12.8780   29.6610 C.2   133  ASP133      0.3671
    106  OD1       -8.4840   12.5540   28.4880 O.co2 133  ASP133     -0.2456
    107  OD2       -8.9370   12.5480   30.6460 O.co2 133  ASP133     -0.2456
    108  N         -4.5770   15.4150   24.7870 N.3   137  HIS137     -0.1241
    109  CA        -5.6690   16.2800   24.3420 C.3   137  HIS137      0.1621
    110  C         -5.4160   17.7620   24.4900 C.2   137  HIS137      0.2264
    111  O         -5.7220   18.5890   23.6210 O.2   137  HIS137     -0.2867
    112  CB        -6.9560   15.9760   25.1500 C.3   137  HIS137      0.0745
    113  CG        -7.7620   14.7940   24.7170 C.ar  137  HIS137      0.0817
    114  ND1       -8.5480   14.8470   23.5820 N.ar  137  HIS137     -0.2268
    115  CD2       -7.9780   13.5550   25.2480 C.ar  137  HIS137      0.1154
    116  CE1       -9.1980   13.6640   23.4260 C.ar  137  HIS137      0.1986
    117  NE2       -8.8550   12.8510   24.4260 N.ar  137  HIS137     -0.2212
    118  N        -18.4160   21.4810   18.7410 N.3   153  TYR153     -0.1241
    119  CA       -18.7970   20.0690   18.9090 C.3   153  TYR153      0.1605
    120  C        -19.6580   19.9400   20.1680 C.2   153  TYR153      0.2264
    121  O        -20.7080   19.3110   20.2190 O.2   153  TYR153     -0.2867
    122  CB       -17.5210   19.1910   18.9750 C.3   153  TYR153      0.0534
    123  CG       -17.8520   17.7620   19.3070 C.ar  153  TYR153     -0.0201
    124  CD1      -18.1910   16.8380   18.3010 C.ar  153  TYR153     -0.0009
    125  CD2      -17.8430   17.2910   20.6060 C.ar  153  TYR153     -0.0009
    126  CE1      -18.4880   15.5350   18.6590 C.ar  153  TYR153      0.0417
    127  CE2      -18.1630   16.0190   20.9900 C.ar  153  TYR153      0.0417
    128  CZ       -18.4790   15.1470   19.9770 C.ar  153  TYR153      0.1957
    129  OH       -18.7820   13.8670   20.3590 O.3   153  TYR153     -0.2866
    130  N        -26.2900   10.1260   19.5730 N.3   166  LEU166     -0.1245
    131  CA       -25.1230    9.9090   20.4530 C.3   166  LEU166      0.1561
    132  C        -24.0620    9.0270   19.8460 C.2   166  LEU166      0.2260
    133  O        -22.8840    9.4170   19.8370 O.2   166  LEU166     -0.2867
    134  CB       -25.6570    9.4320   21.8210 C.3   166  LEU166      0.0270
    135  CG       -26.4800   10.4820   22.5790 C.3   166  LEU166      0.0019
    136  CD1      -26.9840    9.8660   23.8830 C.3   166  LEU166      0.0001
    137  CD2      -25.7070   11.7640   22.8600 C.3   166  LEU166      0.0001
    138  N        -20.2560   10.2820   18.9170 N.3   170  ALA170     -0.1245
    139  CA       -19.1120    9.5230   19.4440 C.3   170  ALA170      0.1562
    140  C        -18.1310    9.1200   18.3480 C.2   170  ALA170      0.2260
    141  O        -16.9100    9.2140   18.5180 O.2   170  ALA170     -0.2867
    142  CB       -19.5960    8.3010   20.1670 C.3   170  ALA170      0.0290
    143  N        -16.2180   12.2500   17.1910 N.3   173  TYR173     -0.1241
    144  CA       -15.1340   12.5960   18.1410 C.3   173  TYR173      0.1605
    145  C        -13.9780   11.6130   18.0380 C.2   173  TYR173      0.2264
    146  O        -12.7910   11.9800   18.0150 O.2   173  TYR173     -0.2867
    147  CB       -15.7280   12.6090   19.5530 C.3   173  TYR173      0.0534
    148  CG       -14.8550   13.2160   20.6330 C.ar  173  TYR173     -0.0201
    149  CD1      -14.8930   14.5820   20.8460 C.ar  173  TYR173     -0.0009
    150  CD2      -13.9920   12.4910   21.4660 C.ar  173  TYR173     -0.0009
    151  CE1      -14.1450   15.2300   21.7990 C.ar  173  TYR173      0.0417
    152  CE2      -13.2190   13.1550   22.4440 C.ar  173  TYR173      0.0417
    153  CZ       -13.2900   14.5170   22.6010 C.ar  173  TYR173      0.1957
    154  OH       -12.5570   15.2020   23.5610 O.3   173  TYR173     -0.2866
    155  N         -9.8040   11.9830   18.7900 N.3   178  GLU178     -0.1245
    156  CA        -9.0270   10.8740   19.3470 C.3   178  GLU178      0.1567
    157  C         -8.0170   10.2840   18.3420 C.2   178  GLU178      0.2260
    158  O         -6.8800   10.0100   18.7720 O.2   178  GLU178     -0.2867
    159  CB        -9.9160    9.7690   19.9140 C.3   178  GLU178      0.0388
    160  CG       -10.8570   10.2140   21.0300 C.3   178  GLU178      0.1160
    161  CD       -10.2270   10.4520   22.3840 C.2   178  GLU178      0.3649
    162  OE1       -9.0130   10.3080   22.6090 O.co2 178  GLU178     -0.2457
    163  OE2      -10.9820   10.8360   23.3310 O.co2 178  GLU178     -0.2457
    164  N        -16.2920    1.9840   15.0760 N.3   226  TYR226     -0.1241
    165  CA       -14.9200    1.9470   15.5380 C.3   226  TYR226      0.1605
    166  C        -14.7850    0.8480   16.6030 C.2   226  TYR226      0.2264
    167  O        -15.7690    0.3760   17.1960 O.2   226  TYR226     -0.2867
    168  CB       -14.4470    3.2960   16.0790 C.3   226  TYR226      0.0534
    169  CG       -15.1060    3.8010   17.3250 C.ar  226  TYR226     -0.0201
    170  CD1      -14.7570    3.4550   18.6190 C.ar  226  TYR226     -0.0009
    171  CD2      -16.1650    4.7210   17.1690 C.ar  226  TYR226     -0.0009
    172  CE1      -15.3690    3.9320   19.7660 C.ar  226  TYR226      0.0417
    173  CE2      -16.7970    5.2150   18.3050 C.ar  226  TYR226      0.0417
    174  CZ       -16.4110    4.8280   19.5750 C.ar  226  TYR226      0.1957
    175  OH       -17.0890    5.3680   20.6450 O.3   226  TYR226     -0.2866
@<TRIPOS>BOND
     1   164   165    1
     2   165   168    1
     3   165   166    1
     4   168   169    1
     5   166   167    2
     6   171   169   ar
     7   171   173   ar
     8   143   144    1
     9   169   170   ar
    10   146   145    2
    11   145   144    1
    12   144   147    1
    13   124   126   ar
    14   124   123   ar
    15   173   174   ar
    16   157   158    2
    17   157   156    1
    18   140   141    2
    19   140   139    1
    20   170   172   ar
    21   126   128   ar
    22   118   119    1
    23   155   156    1
    24   119   122    1
    25   119   120    1
    26   138   139    1
    27   122   123    1
    28   123   125   ar
    29   156   159    1
    30   139   142    1
    31   147   148    1
    32   130   131    1
    33   174   172   ar
    34   174   175    1
    35   133   132    2
    36   132   131    1
    37   159   160    1
    38   128   129    1
    39   128   127   ar
    40   120   121    2
    41   131   134    1
    42   125   127   ar
    43   148   149   ar
    44   148   150   ar
    45   149   151   ar
    46   160   161    1
    47   150   152   ar
    48   151   153   ar
    49   134   135    1
    50   161   162   ar
    51   161   163   ar
    52   152   153   ar
    53   135   137    1
    54   135   136    1
    55   153   154    1
    56    57    56   ar
    57    57    55   ar
    58    56    54   ar
    59   116   114   ar
    60   116   117   ar
    61   114   113   ar
    62    55    53   ar
    63   111   110    2
    64    54    52   ar
    65   109   110    1
    66   109   108    1
    67   109   112    1
    68    53    52   ar
    69   117   115   ar
    70    52    51    1
    71    98    96   ar
    72    98    99   ar
    73    35    33   ar
    74   113   112    1
    75   113   115   ar
    76    45    46   ar
    77    45    43   ar
    78    51    48    1
    79    96    95   ar
    80    99    97   ar
    81    33    32    1
    82    33    34   ar
    83    66    68   ar
    84    66    64   ar
    85    46    44   ar
    86    43    41   ar
    87    48    49    1
    88    48    47    1
    89    50    49    2
    90    32    29    1
    91    68    67   ar
    92    64    63   ar
    93    95    97   ar
    94    95    94    1
    95    93    92    2
    96    47    38   am
    97    31    30    2
    98    44    42   ar
    99    41    42   ar
   100    41    40    1
   101    29    30    1
   102    29    28    1
   103    67    65   ar
   104    63    65   ar
   105    63    62    1
   106    39    38    2
   107    38    37    1
   108    94    91    1
   109    92    91    1
   110    92   100   am
   111   103   102    2
   112    91    90    1
   113    40    37    1
   114    62    59    1
   115   106   105   ar
   116   102   101    1
   117    37    36    1
   118   101   100    1
   119   101   104    1
   120    88    89    1
   121    88    87    1
   122    59    58    1
   123    59    60    1
   124    89    83    1
   125    19    17    1
   126    83    84    1
   127    87    84    1
   128    75    69    1
   129    75    74    1
   130   105   104    1
   131   105   107   ar
   132    84    85    1
   133    18    17    1
   134    60    69   am
   135    60    61    2
   136    17    16    1
   137    72    71    2
   138    23    22    2
   139    69    70    1
   140    74    73    1
   141    85    86    2
   142    71    70    1
   143    73    70    1
   144    16    13    1
   145    22    21    1
   146    25    27    1
   147    25    24    1
   148    20    21    1
   149    20    14   am
   150    13    14    1
   151    13    12    1
   152    21    24    1
   153    14    15    2
   154    24    26    1
   155    81    80    1
   156    12    10   am
   157    76    77    1
   158    80    77    1
   159    80    82    1
   160    11    10    2
   161    10     9    1
   162     7     5    1
   163    77    78    1
   164    79    78    2
   165     9     8    1
   166     6     5    1
   167     5     2    1
   168     1     2    1
   169     2     3    1
   170     4     3    2
