@<TRIPOS>MOLECULE
tmp/1lu1A00.pdb
 113 111 0 0 0
SMALL
GASTEIGER

@<TRIPOS>ATOM
      1  N         10.6130   26.4670  109.5610 N.3    84  ALA84      -0.1231
      2  CA        11.5820   25.8710  108.6400 C.3    84  ALA84       0.1694
      3  C         12.5560   26.9820  108.2570 C.2    84  ALA84       0.2592
      4  O         12.1460   28.1380  108.1160 O.2    84  ALA84      -0.2718
      5  CB        10.8870   25.3390  107.4060 C.3    84  ALA84       0.0304
      6  N         13.8390   26.6610  108.1000 N.am   85  ASP85      -0.1974
      7  CA        14.3750   25.3150  108.2750 C.3    85  ASP85       0.1709
      8  C         15.3330   25.2240  109.4620 C.2    85  ASP85       0.2293
      9  O         15.5820   24.1350  109.9710 O.2    85  ASP85      -0.2864
     10  CB        15.1150   24.8800  107.0090 C.3    85  ASP85       0.1436
     11  CG        14.3730   23.8140  106.2390 C.2    85  ASP85       0.3671
     12  OD1       14.2210   22.7000  106.7810 O.co2  85  ASP85      -0.2456
     13  OD2       13.9450   24.0950  105.0960 O.co2  85  ASP85      -0.2456
     14  N         20.5950   24.2830   99.9460 N.3   101  ASN101     -0.1225
     15  CA        19.6380   25.0580  100.7290 C.3   101  ASN101      0.1785
     16  C         18.6010   24.1510  101.3940 C.2   101  ASN101      0.2598
     17  O         18.7630   22.9300  101.4250 O.2   101  ASN101     -0.2718
     18  CB        18.9410   26.1120   99.8550 C.3   101  ASN101      0.1169
     19  CG        18.2430   25.5140   98.6240 C.2   101  ASN101      0.2627
     20  OD1       17.5270   26.2120   97.9080 O.2   101  ASN101     -0.2716
     21  ND2       18.4580   24.2300   98.3860 N.am  101  ASN101     -0.0877
     22  N         17.5410   24.7450  101.9340 N.am  102  GLY102     -0.1942
     23  CA        16.5180   23.9450  102.5830 C.3   102  GLY102      0.2014
     24  C         17.0020   23.2440  103.8400 C.2   102  GLY102      0.2639
     25  O         17.6580   23.8490  104.6880 O.2   102  GLY102     -0.2714
     26  N         16.6770   21.9610  103.9520 N.am  103  GLY103     -0.1939
     27  CA        17.0570   21.1800  105.1150 C.3   103  GLY103      0.2014
     28  C         18.5400   20.9550  105.3200 C.2   103  GLY103      0.2638
     29  O         18.9400   20.3190  106.3000 O.2   103  GLY103     -0.2714
     30  N         19.3640   21.4650  104.4100 N.am  104  TYR104     -0.1973
     31  CA        20.8080   21.3020  104.5400 C.3   104  TYR104      0.1639
     32  C         21.4180   22.5240  105.2250 C.2   104  TYR104      0.2290
     33  O         22.6340   22.5910  105.4430 O.2   104  TYR104     -0.2864
     34  CB        21.4380   21.0620  103.1650 C.3   104  TYR104      0.0560
     35  CG        21.1100   19.6920  102.6230 C.ar  104  TYR104     -0.0198
     36  CD1       21.8450   18.5750  103.0240 C.ar  104  TYR104     -0.0009
     37  CD2       20.0340   19.4990  101.7480 C.ar  104  TYR104     -0.0009
     38  CE1       21.5210   17.3000  102.5750 C.ar  104  TYR104      0.0417
     39  CE2       19.6990   18.2220  101.2920 C.ar  104  TYR104      0.0417
     40  CZ        20.4480   17.1250  101.7110 C.ar  104  TYR104      0.1957
     41  OH        20.1330   15.8580  101.2740 O.3   104  TYR104     -0.2866
     42  N         12.7000   22.0270  111.6010 N.3   127  LEU127     -0.1231
     43  CA        11.8620   21.1950  110.7340 C.3   127  LEU127      0.1693
     44  C         12.4680   19.8070  110.5810 C.2   127  LEU127      0.2593
     45  O         13.6170   19.6480  110.1480 O.2   127  LEU127     -0.2718
     46  CB        11.6920   21.8280  109.3510 C.3   127  LEU127      0.0284
     47  CG        10.8200   20.9960  108.4030 C.3   127  LEU127      0.0019
     48  CD1        9.4200   21.5940  108.3420 C.3   127  LEU127      0.0001
     49  CD2       11.4360   20.9560  107.0310 C.3   127  LEU127      0.0001
     50  N         11.6760   18.8050  110.9340 N.am  128  SER128     -0.1938
     51  CA        12.1150   17.4240  110.8660 C.3   128  SER128      0.2055
     52  C         12.1030   16.8480  109.4530 C.2   128  SER128      0.2643
     53  O         11.0480   16.7210  108.8390 O.2   128  SER128     -0.2714
     54  CB        11.2320   16.5700  111.7700 C.3   128  SER128      0.2130
     55  OG        11.8620   15.3400  112.0550 O.3   128  SER128     -0.2179
     56  N         13.2790   16.4940  108.9440 N.am  129  ASN129     -0.1957
     57  CA        13.3850   15.9060  107.6130 C.3   129  ASN129      0.1819
     58  C         13.4330   14.3860  107.7620 C.2   129  ASN129      0.2622
     59  O         14.4450   13.8290  108.1840 O.2   129  ASN129     -0.2715
     60  CB        14.6530   16.3920  106.9070 C.3   129  ASN129      0.1195
     61  CG        14.7230   17.8980  106.8080 C.2   129  ASN129      0.2630
     62  OD1       15.4100   18.5540  107.5970 O.2   129  ASN129     -0.2716
     63  ND2       14.0180   18.4610  105.8350 N.am  129  ASN129     -0.0877
     64  N         12.3320   13.7290  107.4070 N.am  130  SER130     -0.1950
     65  CA        12.1840   12.2760  107.5080 C.3   130  SER130      0.1924
     66  C         13.4080   11.3970  107.2540 C.2   130  SER130      0.2314
     67  O         13.5460   10.3390  107.8690 O.2   130  SER130     -0.2863
     68  CB        11.0640   11.8150  106.5790 C.3   130  SER130      0.2116
     69  OG        10.7530   12.8270  105.6410 O.3   130  SER130     -0.2180
     70  N         16.7100   11.9150  107.9580 N.3   132  TRP132     -0.1241
     71  CA        17.8180   11.9240  108.9170 C.3   132  TRP132      0.1605
     72  C         17.5190   12.6470  110.2180 C.2   132  TRP132      0.2264
     73  O         18.3610   12.6850  111.1100 O.2   132  TRP132     -0.2867
     74  CB        19.0370   12.5900  108.2860 C.3   132  TRP132      0.0550
     75  CG        18.7610   14.0190  107.9000 C.ar  132  TRP132      0.0003
     76  CD1       18.6360   15.0870  108.7410 C.ar  132  TRP132      0.0946
     77  CD2       18.5460   14.5220  106.5770 C.ar  132  TRP132      0.0152
     78  NE1       18.3540   16.2270  108.0260 N.ar  132  TRP132     -0.2442
     79  CE2       18.2990   15.9100  106.6940 C.ar  132  TRP132      0.0810
     80  CE3       18.5470   13.9380  105.3030 C.ar  132  TRP132      0.0012
     81  CZ2       18.0370   16.7160  105.5870 C.ar  132  TRP132      0.0191
     82  CZ3       18.2920   14.7410  104.2050 C.ar  132  TRP132      0.0001
     83  CH2       18.0470   16.1170  104.3530 C.ar  132  TRP132      0.0015
     84  N         12.3070   27.3500  104.5560 N.3   213  GLY213     -0.1210
     85  CA        11.7500   26.2510  103.7830 C.3   213  GLY213      0.1956
     86  C         11.4930   26.5230  102.3180 C.2   213  GLY213      0.2612
     87  O         11.3220   27.6700  101.9100 O.2   213  GLY213     -0.2717
     88  N         11.4410   25.4550  101.5280 N.am  214  LEU214     -0.1965
     89  CA        11.2290   25.5630  100.0940 C.3   214  LEU214      0.1728
     90  C          9.7670   25.6170   99.6790 C.2   214  LEU214      0.2616
     91  O          9.4540   25.5010   98.4970 O.2   214  LEU214     -0.2715
     92  CB        11.9070   24.3940   99.3930 C.3   214  LEU214      0.0311
     93  CG        13.3920   24.2000   99.7090 C.3   214  LEU214      0.0022
     94  CD1       13.9230   22.9810   98.9510 C.3   214  LEU214      0.0001
     95  CD2       14.1660   25.4460   99.3110 C.3   214  LEU214      0.0001
     96  N          8.8750   25.7900  100.6480 N.am  215  SER215     -0.1950
     97  CA         7.4440   25.8560  100.3660 C.3   215  SER215      0.1924
     98  C          6.8600   27.1810  100.8090 C.2   215  SER215      0.2314
     99  O          7.4240   27.8640  101.6530 O.2   215  SER215     -0.2863
    100  CB         6.7030   24.7200  101.0590 C.3   215  SER215      0.2116
    101  OG         7.1440   23.4760  100.5540 O.3   215  SER215     -0.2180
    102  N          6.4000   27.4160  104.8000 N.3   218  TYR218     -0.1241
    103  CA         7.4110   26.9870  105.7440 C.3   218  TYR218      0.1605
    104  C          8.4820   28.0470  105.8570 C.2   218  TYR218      0.2264
    105  O          9.5300   27.9500  105.2280 O.2   218  TYR218     -0.2867
    106  CB         8.0050   25.6780  105.2860 C.3   218  TYR218      0.0534
    107  CG         7.0380   24.5530  105.4470 C.ar  218  TYR218     -0.0201
    108  CD1        6.0670   24.3080  104.4860 C.ar  218  TYR218     -0.0009
    109  CD2        7.1000   23.7180  106.5560 C.ar  218  TYR218     -0.0009
    110  CE1        5.1800   23.2500  104.6210 C.ar  218  TYR218      0.0417
    111  CE2        6.2210   22.6600  106.7040 C.ar  218  TYR218      0.0417
    112  CZ         5.2670   22.4250  105.7310 C.ar  218  TYR218      0.1957
    113  OH         4.4290   21.3440  105.8550 O.3   218  TYR218     -0.2866
@<TRIPOS>BOND
     1    20    19    2
     2    21    19   am
     3    91    90    2
     4    19    18    1
     5    94    93    1
     6    95    93    1
     7    92    93    1
     8    92    89    1
     9    90    89    1
    10    90    96   am
    11    18    15    1
    12    14    15    1
    13    89    88    1
    14    97    96    1
    15    97    98    1
    16    97   100    1
    17   101   100    1
    18    15    16    1
    19    98    99    2
    20    41    40    1
    21    39    40   ar
    22    39    37   ar
    23    16    17    2
    24    16    22   am
    25    88    86   am
    26    40    38   ar
    27    37    35   ar
    28    87    86    2
    29    22    23    1
    30    86    85    1
    31    38    36   ar
    32    23    24    1
    33    35    36   ar
    34    35    34    1
    35    34    31    1
    36    85    84    1
    37    24    26   am
    38    24    25    2
    39    26    27    1
    40    82    83   ar
    41    82    80   ar
    42    83    81   ar
    43    30    31    1
    44    30    28   am
    45   108   110   ar
    46   108   107   ar
    47    31    32    1
    48   110   112   ar
    49   102   103    1
    50    13    11   ar
    51    27    28    1
    52    32    33    2
    53   105   104    2
    54   106   107    1
    55   106   103    1
    56    80    77   ar
    57    28    29    2
    58   107   109   ar
    59    81    79   ar
    60    69    68    1
    61   112   113    1
    62   112   111   ar
    63   103   104    1
    64    63    61   am
    65    11    12   ar
    66    11    10    1
    67   109   111   ar
    68    77    79   ar
    69    77    75   ar
    70    68    65    1
    71    79    78   ar
    72    61    60    1
    73    61    62    2
    74    60    57    1
    75    10     7    1
    76    49    47    1
    77    66    65    1
    78    66    67    2
    79     5     2    1
    80    64    65    1
    81    64    58   am
    82    57    58    1
    83    57    56    1
    84    58    59    2
    85    75    74    1
    86    75    76   ar
    87    70    71    1
    88    78    76   ar
    89     6     3   am
    90     6     7    1
    91     4     3    2
    92     3     2    1
    93     7     8    1
    94    74    71    1
    95    48    47    1
    96    47    46    1
    97     2     1    1
    98    53    52    2
    99    71    72    1
   100    56    52   am
   101    46    43    1
   102    52    51    1
   103     8     9    2
   104    45    44    2
   105    72    73    2
   106    44    43    1
   107    44    50   am
   108    43    42    1
   109    51    50    1
   110    51    54    1
   111    54    55    1
