@<TRIPOS>MOLECULE
tmp/1lu2A00.pdb
 107 104 0 0 0
SMALL
GASTEIGER

@<TRIPOS>ATOM
      1  N         -8.8830   27.3940   22.3390 N.3    85  ASP85      -0.1239
      2  CA        -7.5350   27.9300   22.1450 C.3    85  ASP85       0.1674
      3  C         -6.8230   27.3340   20.9260 C.2    85  ASP85       0.2266
      4  O         -5.8710   27.9260   20.4070 O.2    85  ASP85      -0.2867
      5  CB        -6.6990   27.6580   23.3830 C.3    85  ASP85       0.1410
      6  CG        -6.3810   28.9090   24.1420 C.2    85  ASP85       0.3668
      7  OD1       -5.7440   29.8010   23.5350 O.co2  85  ASP85      -0.2456
      8  OD2       -6.7700   28.9930   25.3310 O.co2  85  ASP85      -0.2456
      9  N          0.9470   22.6590   30.1610 N.3   100  ARG100     -0.1231
     10  CA         0.1520   23.8680   30.3680 C.3   100  ARG100      0.1694
     11  C         -1.1090   23.9830   29.5070 C.2   100  ARG100      0.2592
     12  O         -1.0480   23.7860   28.3000 O.2   100  ARG100     -0.2718
     13  CB         1.0330   25.0820   30.1360 C.3   100  ARG100      0.0321
     14  CG         1.4310   25.7430   31.4100 C.3   100  ARG100      0.0489
     15  CD         2.3910   26.8630   31.1560 C.3   100  ARG100      0.2205
     16  NE         1.8360   28.1410   31.5960 N.pl3 100  ARG100     -0.0865
     17  CZ         2.5670   29.1580   32.0490 C.cat 100  ARG100      0.5346
     18  NH1        3.8920   29.0560   32.1160 N.pl3 100  ARG100      0.1354
     19  NH2        1.9710   30.2870   32.4210 N.pl3 100  ARG100      0.1354
     20  N         -2.2430   24.3190   30.1280 N.am  101  ASN101     -0.1960
     21  CA        -3.5180   24.4580   29.4080 C.3   101  ASN101      0.1819
     22  C         -3.6480   25.8260   28.7430 C.2   101  ASN101      0.2622
     23  O         -2.6750   26.5930   28.6830 O.2   101  ASN101     -0.2715
     24  CB        -4.7110   24.2480   30.3530 C.3   101  ASN101      0.1195
     25  CG        -4.8330   25.3500   31.4120 C.2   101  ASN101      0.2630
     26  OD1       -5.8720   25.4930   32.0720 O.2   101  ASN101     -0.2716
     27  ND2       -3.7690   26.1300   31.5820 N.am  101  ASN101     -0.0877
     28  N         -4.8540   26.1260   28.2540 N.am  102  GLY102     -0.1940
     29  CA        -5.1020   27.4000   27.5970 C.3   102  GLY102      0.2014
     30  C         -4.3200   27.6030   26.3080 C.2   102  GLY102      0.2639
     31  O         -4.3890   26.7860   25.3950 O.2   102  GLY102     -0.2714
     32  N         -3.5630   28.6940   26.2430 N.am  103  GLY103     -0.1939
     33  CA        -2.7840   29.0060   25.0600 C.3   103  GLY103      0.2014
     34  C         -1.5450   28.1610   24.8590 C.2   103  GLY103      0.2638
     35  O         -0.7980   28.3790   23.9020 O.2   103  GLY103     -0.2714
     36  N         -1.3120   27.2030   25.7500 N.am  104  TYR104     -0.1973
     37  CA        -0.1570   26.3220   25.6310 C.3   104  TYR104      0.1639
     38  C         -0.5650   24.9840   25.0360 C.2   104  TYR104      0.2290
     39  O          0.2410   24.0590   24.9550 O.2   104  TYR104     -0.2864
     40  CB         0.4890   26.1120   26.9870 C.3   104  TYR104      0.0560
     41  CG         1.2520   27.3160   27.4530 C.ar  104  TYR104     -0.0198
     42  CD1        2.5830   27.4970   27.0930 C.ar  104  TYR104     -0.0009
     43  CD2        0.6430   28.2850   28.2450 C.ar  104  TYR104     -0.0009
     44  CE1        3.2920   28.6150   27.5110 C.ar  104  TYR104      0.0417
     45  CE2        1.3390   29.4080   28.6680 C.ar  104  TYR104      0.0417
     46  CZ         2.6660   29.5680   28.2980 C.ar  104  TYR104      0.1957
     47  OH         3.3840   30.6780   28.7100 O.3   104  TYR104     -0.2866
     48  N         -6.4690   31.4600   18.5910 N.3   127  LEU127     -0.1245
     49  CA        -6.4670   32.6490   19.4510 C.3   127  LEU127      0.1561
     50  C         -5.0440   33.1930   19.5570 C.2   127  LEU127      0.2260
     51  O         -4.1130   32.4860   19.9650 O.2   127  LEU127     -0.2867
     52  CB        -6.9910   32.3260   20.8620 C.3   127  LEU127      0.0270
     53  CG        -6.9130   33.4910   21.8600 C.3   127  LEU127      0.0019
     54  CD1       -8.3040   33.9860   22.1940 C.3   127  LEU127      0.0001
     55  CD2       -6.2020   33.0390   23.1070 C.3   127  LEU127      0.0001
     56  N         -2.0820   34.9260   21.1700 N.3   129  ASN129     -0.1240
     57  CA        -1.5550   35.2730   22.4840 C.3   129  ASN129      0.1653
     58  C         -0.4670   36.3060   22.2760 C.2   129  ASN129      0.2266
     59  O          0.6210   35.9940   21.7910 O.2   129  ASN129     -0.2867
     60  CB        -0.9760   34.0430   23.1770 C.3   129  ASN129      0.1155
     61  CG        -2.0060   32.9660   23.3860 C.2   129  ASN129      0.2627
     62  OD1       -2.0270   31.9730   22.6670 O.2   129  ASN129     -0.2716
     63  ND2       -2.8760   33.1580   24.3680 N.am  129  ASN129     -0.0877
     64  N          3.5200   35.7900   22.2750 N.3   132  TRP132     -0.1241
     65  CA         4.2950   35.0730   21.2590 C.3   132  TRP132      0.1605
     66  C          3.5930   34.8190   19.9140 C.2   132  TRP132      0.2264
     67  O          4.2330   34.3990   18.9480 O.2   132  TRP132     -0.2867
     68  CB         4.7200   33.7210   21.8400 C.3   132  TRP132      0.0550
     69  CG         3.5290   32.8860   22.2400 C.ar  132  TRP132      0.0003
     70  CD1        2.7300   32.1380   21.4140 C.ar  132  TRP132      0.0946
     71  CD2        2.9740   32.7560   23.5540 C.ar  132  TRP132      0.0152
     72  NE1        1.7130   31.5550   22.1310 N.ar  132  TRP132     -0.2442
     73  CE2        1.8390   31.9120   23.4480 C.ar  132  TRP132      0.0810
     74  CE3        3.3250   33.2650   24.8120 C.ar  132  TRP132      0.0012
     75  CZ2        1.0470   31.5730   24.5520 C.ar  132  TRP132      0.0191
     76  CZ3        2.5380   32.9260   25.9120 C.ar  132  TRP132      0.0001
     77  CH2        1.4120   32.0820   25.7710 C.ar  132  TRP132      0.0015
     78  N        -10.5600   28.0090   25.7980 N.3   213  GLY213     -0.1210
     79  CA       -10.2020   29.2100   26.5270 C.3   213  GLY213      0.1956
     80  C        -10.4410   29.1070   28.0230 C.2   213  GLY213      0.2612
     81  O        -11.2370   28.2890   28.4910 O.2   213  GLY213     -0.2717
     82  N         -9.7520   29.9560   28.7790 N.am  214  LEU214     -0.1965
     83  CA        -9.8700   29.9590   30.2280 C.3   214  LEU214      0.1728
     84  C        -11.0380   30.8210   30.6920 C.2   214  LEU214      0.2616
     85  O        -11.3740   30.8460   31.8710 O.2   214  LEU214     -0.2715
     86  CB        -8.5550   30.4430   30.8460 C.3   214  LEU214      0.0311
     87  CG        -7.3220   29.7280   30.2750 C.3   214  LEU214      0.0022
     88  CD1       -6.0790   30.2630   30.9330 C.3   214  LEU214      0.0001
     89  CD2       -7.4320   28.2180   30.4890 C.3   214  LEU214      0.0001
     90  N        -11.6710   31.5110   29.7560 N.am  215  SER215     -0.1950
     91  CA       -12.8040   32.3580   30.0890 C.3   215  SER215      0.1924
     92  C        -14.0960   31.8230   29.4960 C.2   215  SER215      0.2314
     93  O        -14.0960   30.9600   28.6240 O.2   215  SER215     -0.2863
     94  CB       -12.5690   33.7870   29.5940 C.3   215  SER215      0.2116
     95  OG       -11.3550   34.3270   30.1110 O.3   215  SER215     -0.2180
     96  N        -14.5680   32.2330   25.4580 N.3   218  TYR218     -0.1241
     97  CA       -13.5440   31.7410   24.5430 C.3   218  TYR218      0.1605
     98  C        -13.5940   30.2360   24.4890 C.2   218  TYR218      0.2264
     99  O        -12.7970   29.5480   25.1170 O.2   218  TYR218     -0.2867
    100  CB       -12.1700   32.2130   24.9900 C.3   218  TYR218      0.0534
    101  CG       -12.0570   33.7000   24.8720 C.ar  218  TYR218     -0.0201
    102  CD1      -12.4940   34.5270   25.9020 C.ar  218  TYR218     -0.0009
    103  CD2      -11.5750   34.2880   23.7090 C.ar  218  TYR218     -0.0009
    104  CE1      -12.4580   35.9070   25.7790 C.ar  218  TYR218      0.0417
    105  CE2      -11.5330   35.6710   23.5740 C.ar  218  TYR218      0.0417
    106  CZ       -11.9780   36.4760   24.6160 C.ar  218  TYR218      0.1957
    107  OH       -11.9480   37.8480   24.5030 O.3   218  TYR218     -0.2866
@<TRIPOS>BOND
     1    48    49    1
     2    67    66    2
     3    49    50    1
     4    49    52    1
     5    50    51    2
     6    66    65    1
     7     4     3    2
     8    52    53    1
     9     3     2    1
    10    56    57    1
    11    65    68    1
    12    65    64    1
    13    70    72   ar
    14    70    69   ar
    15    59    58    2
    16    68    69    1
    17    53    54    1
    18    53    55    1
    19    72    73   ar
    20     2     1    1
    21     2     5    1
    22    69    71   ar
    23    58    57    1
    24    57    60    1
    25    62    61    2
    26    60    61    1
    27     5     6    1
    28    61    63   am
    29    73    71   ar
    30    73    75   ar
    31     7     6   ar
    32    71    74   ar
    33   105   103   ar
    34   105   106   ar
    35   103   101   ar
    36    35    34    2
    37     6     8   ar
    38    98    97    1
    39    98    99    2
    40   107   106    1
    41    97   100    1
    42    97    96    1
    43    75    77   ar
    44   106   104   ar
    45    74    76   ar
    46    34    33    1
    47    34    36   am
    48   101   100    1
    49   101   102   ar
    50    39    38    2
    51    38    37    1
    52    33    32    1
    53    31    30    2
    54    37    36    1
    55    37    40    1
    56    77    76   ar
    57   104   102   ar
    58    78    79    1
    59    32    30   am
    60    30    29    1
    61    79    80    1
    62    40    41    1
    63    42    41   ar
    64    42    44   ar
    65    41    43   ar
    66    44    46   ar
    67    29    28    1
    68    80    81    2
    69    80    82   am
    70    43    45   ar
    71    28    22   am
    72    46    45   ar
    73    46    47    1
    74    12    11    2
    75    93    92    2
    76    23    22    2
    77    22    21    1
    78    82    83    1
    79    21    20    1
    80    21    24    1
    81    92    91    1
    82    11    20   am
    83    11    10    1
    84    94    91    1
    85    94    95    1
    86    90    91    1
    87    90    84   am
    88    13    10    1
    89    13    14    1
    90     9    10    1
    91    83    84    1
    92    83    86    1
    93    87    89    1
    94    87    86    1
    95    87    88    1
    96    24    25    1
    97    84    85    2
    98    15    14    1
    99    15    16    1
   100    25    27   am
   101    25    26    2
   102    16    17    2
   103    17    18    1
   104    17    19    1
