@<TRIPOS>MOLECULE
tmp/1luaA00.pdb
 190 179 0 0 0
SMALL
GASTEIGER

@<TRIPOS>ATOM
      1  N         22.6910   37.6770   55.8780 N.3    17  PHE17      -0.1241
      2  CA        22.0510   36.8560   54.8480 C.3    17  PHE17       0.1605
      3  C         21.6060   35.5160   55.4700 C.2    17  PHE17       0.2264
      4  O         20.4820   35.0790   55.2710 O.2    17  PHE17      -0.2867
      5  CB        23.0560   36.6230   53.6890 C.3    17  PHE17       0.0534
      6  CG        22.4860   35.9020   52.4930 C.ar   17  PHE17      -0.0203
      7  CD1       22.2630   36.5800   51.2950 C.ar   17  PHE17      -0.0042
      8  CD2       22.1730   34.5380   52.5560 C.ar   17  PHE17      -0.0042
      9  CE1       21.7290   35.9130   50.1750 C.ar   17  PHE17      -0.0003
     10  CE2       21.6430   33.8680   51.4450 C.ar   17  PHE17      -0.0003
     11  CZ        21.4210   34.5620   50.2530 C.ar   17  PHE17      -0.0000
     12  N         29.3230   31.0240   53.2620 N.3    96  ASN96      -0.1225
     13  CA        29.1300   31.8940   52.0930 C.3    96  ASN96       0.1785
     14  C         28.1650   31.3210   51.0610 C.2    96  ASN96       0.2598
     15  O         28.1750   31.7380   49.9090 O.2    96  ASN96      -0.2718
     16  CB        30.4850   32.1840   51.4290 C.3    96  ASN96       0.1169
     17  CG        30.5560   33.5690   50.8290 C.2    96  ASN96       0.2627
     18  OD1       30.1970   34.5550   51.4730 O.2    96  ASN96      -0.2716
     19  ND2       31.0310   33.6580   49.5990 N.am   96  ASN96      -0.0877
     20  N         27.3490   30.3500   51.4690 N.am   97  GLY97      -0.1942
     21  CA        26.3830   29.7650   50.5560 C.3    97  GLY97       0.2014
     22  C         26.9950   28.9140   49.4490 C.2    97  GLY97       0.2639
     23  O         26.3430   28.6440   48.4390 O.2    97  GLY97      -0.2714
     24  N         28.2260   28.4490   49.6390 N.am   98  SER98      -0.1949
     25  CA        28.8710   27.6620   48.5800 C.3    98  SER98       0.1924
     26  C         28.3150   26.2660   48.3480 C.2    98  SER98       0.2314
     27  O         28.2830   25.7990   47.1940 O.2    98  SER98      -0.2863
     28  CB        30.3720   27.5830   48.8130 C.3    98  SER98       0.2116
     29  OG        30.9400   28.8720   48.7120 O.3    98  SER98      -0.2180
     30  N         24.7720   26.8200   46.6860 N.3   101  THR101     -0.1218
     31  CA        24.8780   27.3460   45.3320 C.3   101  THR101      0.1862
     32  C         25.4290   26.2440   44.4200 C.2   101  THR101      0.2287
     33  O         24.8650   25.9670   43.3720 O.2   101  THR101     -0.2866
     34  CB        25.7890   28.6020   45.2970 C.3   101  THR101      0.1770
     35  OG1       25.1570   29.6610   46.0270 O.3   101  THR101     -0.2211
     36  CG2       26.0420   29.0560   43.8430 C.3   101  THR101      0.0375
     37  N         37.8480   28.6690   36.2700 N.3   126  ALA126     -0.1245
     38  CA        38.0680   29.4190   37.4980 C.3   126  ALA126      0.1562
     39  C         37.4790   28.5690   38.6150 C.2   126  ALA126      0.2260
     40  O         36.8180   29.0810   39.5230 O.2   126  ALA126     -0.2867
     41  CB        37.3720   30.7700   37.4270 C.3   126  ALA126      0.0290
     42  N         38.8500   27.1140   41.1380 N.3   128  THR128     -0.1203
     43  CA        39.6690   27.0680   42.3560 C.3   128  THR128      0.1994
     44  C         39.0370   27.6650   43.6120 C.2   128  THR128      0.2618
     45  O         39.6090   27.5590   44.7030 O.2   128  THR128     -0.2717
     46  CB        41.0320   27.7670   42.1350 C.3   128  THR128      0.1784
     47  OG1       40.8270   29.0860   41.6050 O.3   128  THR128     -0.2211
     48  CG2       41.8850   26.9630   41.1930 C.3   128  THR128      0.0376
     49  N         37.8870   28.3140   43.4610 N.am  129  GLY129     -0.1942
     50  CA        37.1900   28.8830   44.6120 C.3   129  GLY129      0.1998
     51  C         36.2640   27.8290   45.2190 C.2   129  GLY129      0.2481
     52  O         36.1080   26.7510   44.6510 O.2   129  GLY129     -0.2729
     53  N         35.6170   28.1130   46.3660 N.am  130  PRO130     -0.2715
     54  CA        34.7190   27.1540   47.0060 C.3   130  PRO130      0.1536
     55  C         33.5430   26.6530   46.1400 C.2   130  PRO130      0.2598
     56  O         33.1990   25.4880   46.1870 O.2   130  PRO130     -0.2715
     57  CB        34.2520   27.9020   48.2780 C.3   130  PRO130      0.0310
     58  CG        34.3860   29.3250   47.9290 C.3   130  PRO130      0.0237
     59  CD        35.6580   29.3860   47.1090 C.3   130  PRO130      0.0939
     60  N         32.9140   27.5260   45.3680 N.am  131  VAL131     -0.1964
     61  CA        31.7990   27.0780   44.5320 C.3   131  VAL131      0.1727
     62  C         32.2930   26.1730   43.3990 C.2   131  VAL131      0.2616
     63  O         31.6840   25.1490   43.0940 O.2   131  VAL131     -0.2715
     64  CB        31.0250   28.2920   43.9550 C.3   131  VAL131      0.0290
     65  CG1       29.9910   27.8210   42.9490 C.3   131  VAL131      0.0023
     66  CG2       30.3130   29.0160   45.0910 C.3   131  VAL131      0.0023
     67  N         33.4160   26.5380   42.8060 N.am  132  GLY132     -0.1955
     68  CA        33.9700   25.7200   41.7340 C.3   132  GLY132      0.1869
     69  C         34.4290   24.3610   42.2440 C.2   132  GLY132      0.2309
     70  O         34.1920   23.3350   41.6020 O.2   132  GLY132     -0.2863
     71  N         42.3350   26.9860   36.1540 N.3   150  GLY150     -0.1210
     72  CA        42.6740   28.2210   36.8240 C.3   150  GLY150      0.1956
     73  C         43.8560   28.8170   36.0920 C.2   150  GLY150      0.2612
     74  O         44.5160   28.1230   35.2960 O.2   150  GLY150     -0.2717
     75  N         44.1330   30.0870   36.3480 N.am  151  ARG151     -0.1965
     76  CA        45.2460   30.7590   35.6990 C.3   151  ARG151      0.1729
     77  C         46.6110   30.0980   35.9610 C.2   151  ARG151      0.2616
     78  O         47.4570   30.0510   35.0650 O.2   151  ARG151     -0.2715
     79  CB        45.2770   32.2240   36.1340 C.3   151  ARG151      0.0348
     80  CG        44.1220   33.0390   35.5670 C.3   151  ARG151      0.0492
     81  CD        44.0020   34.3790   36.2560 C.3   151  ARG151      0.2205
     82  NE        43.6950   34.2100   37.6730 N.pl3 151  ARG151     -0.0865
     83  CZ        43.5490   35.2090   38.5360 C.cat 151  ARG151      0.5346
     84  NH1       43.6820   36.4600   38.1270 N.pl3 151  ARG151      0.1354
     85  NH2       43.2610   34.9550   39.8120 N.pl3 151  ARG151      0.1354
     86  N         46.8250   29.5870   37.1740 N.am  152  LYS152     -0.1977
     87  CA        48.0960   28.9500   37.5120 C.3   152  LYS152      0.1596
     88  C         47.9300   27.4890   37.8620 C.2   152  LYS152      0.2287
     89  O         47.1320   27.1380   38.7260 O.2   152  LYS152     -0.2864
     90  CB        48.7630   29.6710   38.6790 C.3   152  LYS152      0.0298
     91  CG        49.7180   30.7700   38.2670 C.3   152  LYS152      0.0038
     92  CD        50.5780   31.1980   39.4480 C.3   152  LYS152      0.0206
     93  CE        51.6330   32.2100   39.0380 C.3   152  LYS152      0.1093
     94  NZ        52.2780   32.8140   40.2360 N.3   152  LYS152     -0.1314
     95  N         47.9420   26.2250   41.8000 N.3   155  LYS155     -0.1245
     96  CA        46.7180   26.4850   42.5560 C.3   155  LYS155      0.1561
     97  C         45.6060   25.5700   42.0620 C.2   155  LYS155      0.2260
     98  O         44.8060   25.0490   42.8530 O.2   155  LYS155     -0.2867
     99  CB        46.3140   27.9440   42.3890 C.3   155  LYS155      0.0271
    100  CG        45.0600   28.3750   43.1320 C.3   155  LYS155      0.0035
    101  CD        44.8760   29.8880   42.9420 C.3   155  LYS155      0.0206
    102  CE        43.6790   30.4360   43.7150 C.3   155  LYS155      0.1093
    103  NZ        43.5370   31.9000   43.5260 N.3   155  LYS155     -0.1314
    104  N         41.4650   29.2100   27.7580 N.3   182  ARG182     -0.1245
    105  CA        40.1340   28.8360   28.2420 C.3   182  ARG182      0.1563
    106  C         39.2410   28.3130   27.1150 C.2   182  ARG182      0.2260
    107  O         38.3900   27.4570   27.3400 O.2   182  ARG182     -0.2867
    108  CB        39.4520   30.0240   28.9410 C.3   182  ARG182      0.0307
    109  CG        40.0700   30.3620   30.3010 C.3   182  ARG182      0.0489
    110  CD        39.1010   31.0960   31.2070 C.3   182  ARG182      0.2205
    111  NE        38.8980   32.4940   30.8380 N.pl3 182  ARG182     -0.0865
    112  CZ        39.7240   33.4840   31.1600 C.cat 182  ARG182      0.5346
    113  NH1       40.8250   33.2350   31.8620 N.pl3 182  ARG182      0.1354
    114  NH2       39.4430   34.7310   30.7980 N.pl3 182  ARG182      0.1354
    115  N         32.8540   29.3920   37.2670 N.3   195  ALA195     -0.1231
    116  CA        32.7250   29.6940   38.6940 C.3   195  ALA195      0.1694
    117  C         33.6860   30.7970   39.0870 C.2   195  ALA195      0.2593
    118  O         34.3170   30.7340   40.1460 O.2   195  ALA195     -0.2718
    119  CB        33.0070   28.4400   39.5260 C.3   195  ALA195      0.0304
    120  N         33.7910   31.8130   38.2340 N.am  196  GLY196     -0.1942
    121  CA        34.6880   32.9120   38.5170 C.3   196  GLY196      0.2014
    122  C         34.2080   33.9260   39.5420 C.2   196  GLY196      0.2639
    123  O         33.0260   33.9880   39.8760 O.2   196  GLY196     -0.2714
    124  N         35.1510   34.7190   40.0430 N.am  197  ALA197     -0.1963
    125  CA        34.8610   35.7580   41.0150 C.3   197  ALA197      0.1728
    126  C         33.8330   36.7080   40.4250 C.2   197  ALA197      0.2616
    127  O         33.6430   36.7610   39.2090 O.2   197  ALA197     -0.2715
    128  CB        36.1230   36.5010   41.3760 C.3   197  ALA197      0.0334
    129  N         33.1800   37.4690   41.2900 N.am  198  ILE198     -0.1977
    130  CA        32.1320   38.3750   40.8650 C.3   198  ILE198      0.1596
    131  C         32.5330   39.4790   39.8700 C.2   198  ILE198      0.2287
    132  O         33.5580   40.1510   40.0400 O.2   198  ILE198     -0.2864
    133  CB        31.4610   39.0100   42.1020 C.3   198  ILE198      0.0276
    134  CG1       30.2940   39.8990   41.6630 C.3   198  ILE198      0.0022
    135  CG2       32.4910   39.8010   42.9020 C.3   198  ILE198      0.0022
    136  CD1       29.4990   40.5160   42.8220 C.3   198  ILE198      0.0001
    137  N         33.2880   39.2380   36.3870 N.3   200  LEU200     -0.1245
    138  CA        34.3160   38.9180   35.3900 C.3   200  LEU200      0.1561
    139  C         33.7870   37.9650   34.3230 C.2   200  LEU200      0.2260
    140  O         32.9500   37.1000   34.6150 O.2   200  LEU200     -0.2867
    141  CB        35.5190   38.2460   36.0590 C.3   200  LEU200      0.0270
    142  CG        36.7180   39.0250   36.6070 C.3   200  LEU200      0.0019
    143  CD1       36.3780   40.4920   36.9000 C.3   200  LEU200      0.0001
    144  CD2       37.1890   38.2990   37.8630 C.3   200  LEU200      0.0001
    145  N         34.5470   34.9760   31.4250 N.3   202  LEU202     -0.1245
    146  CA        35.5110   33.9050   31.2220 C.3   202  LEU202      0.1561
    147  C         35.3520   33.1600   29.9100 C.2   202  LEU202      0.2260
    148  O         36.3170   32.6020   29.4030 O.2   202  LEU202     -0.2867
    149  CB        35.4180   32.8810   32.3660 C.3   202  LEU202      0.0270
    150  CG        35.7280   33.3540   33.7880 C.3   202  LEU202      0.0019
    151  CD1       35.4750   32.2110   34.7770 C.3   202  LEU202      0.0001
    152  CD2       37.1720   33.8440   33.8630 C.3   202  LEU202      0.0001
    153  N         27.8690   31.0030   37.5230 N.3   220  TYR220     -0.1227
    154  CA        27.5640   31.3610   38.9050 C.3   220  TYR220      0.1736
    155  C         27.6990   32.8550   39.1940 C.2   220  TYR220      0.2595
    156  O         27.2960   33.3140   40.2560 O.2   220  TYR220     -0.2718
    157  CB        28.4660   30.5780   39.8760 C.3   220  TYR220      0.0548
    158  CG        28.1670   29.0970   39.9510 C.ar  220  TYR220     -0.0200
    159  CD1       29.0280   28.1540   39.3920 C.ar  220  TYR220     -0.0009
    160  CD2       27.0140   28.6360   40.5810 C.ar  220  TYR220     -0.0009
    161  CE1       28.7470   26.7720   39.4680 C.ar  220  TYR220      0.0417
    162  CE2       26.7270   27.2770   40.6580 C.ar  220  TYR220      0.0417
    163  CZ        27.5900   26.3480   40.1130 C.ar  220  TYR220      0.1957
    164  OH        27.3030   24.9980   40.2640 O.3   220  TYR220     -0.2866
    165  N         28.2640   33.6130   38.2520 N.am  221  ASN221     -0.1960
    166  CA        28.4340   35.0600   38.4210 C.3   221  ASN221      0.1819
    167  C         27.1860   35.8360   37.9830 C.2   221  ASN221      0.2621
    168  O         26.7700   35.7390   36.8280 O.2   221  ASN221     -0.2715
    169  CB        29.6540   35.5210   37.6140 C.3   221  ASN221      0.1195
    170  CG        29.7740   37.0370   37.5390 C.2   221  ASN221      0.2630
    171  OD1       29.3940   37.7430   38.4680 O.2   221  ASN221     -0.2716
    172  ND2       30.3230   37.5390   36.4280 N.am  221  ASN221     -0.0877
    173  N         26.5920   36.6060   38.9000 N.am  222  ALA222     -0.1977
    174  CA        25.3840   37.3750   38.5950 C.3   222  ALA222      0.1597
    175  C         25.6320   38.8510   38.2740 C.2   222  ALA222      0.2287
    176  O         24.6960   39.5760   37.9460 O.2   222  ALA222     -0.2864
    177  CB        24.4010   37.2760   39.7580 C.3   222  ALA222      0.0319
    178  N         20.2840   30.8800   41.3130 N.3   252  GLY252     -0.1225
    179  CA        19.9980   31.4800   42.6060 C.3   252  GLY252      0.1811
    180  C         18.6000   31.2200   43.1420 C.2   252  GLY252      0.2280
    181  O         18.4210   31.0500   44.3550 O.2   252  GLY252     -0.2866
    182  N         18.7360   27.8630   44.7270 N.3   255  LYS255     -0.1245
    183  CA        19.6150   27.9230   45.8970 C.3   255  LYS255      0.1561
    184  C         18.8460   28.4480   47.1110 C.2   255  LYS255      0.2260
    185  O         18.9480   27.9070   48.2180 O.2   255  LYS255     -0.2867
    186  CB        20.8090   28.8410   45.6170 C.3   255  LYS255      0.0271
    187  CG        21.7040   29.1630   46.8240 C.3   255  LYS255      0.0035
    188  CD        21.2230   30.3910   47.5850 C.3   255  LYS255      0.0206
    189  CE        22.0330   30.6540   48.8560 C.3   255  LYS255      0.1093
    190  NZ        23.4390   31.1140   48.6110 N.3   255  LYS255     -0.1314
@<TRIPOS>BOND
     1   106   107    2
     2   106   105    1
     3   104   105    1
     4   105   108    1
     5   108   109    1
     6   148   147    2
     7   147   146    1
     8   109   110    1
     9   114   112    1
    10   111   112    2
    11   111   110    1
    12   112   113    1
    13   146   145    1
    14   146   149    1
    15   149   150    1
    16   150   152    1
    17   150   151    1
    18   139   140    2
    19   139   138    1
    20    78    77    2
    21    74    73    2
    22   138   141    1
    23   138   137    1
    24    80    79    1
    25    80    81    1
    26    76    77    1
    27    76    79    1
    28    76    75    1
    29    77    86   am
    30   141   142    1
    31    73    75   am
    32    73    72    1
    33    71    72    1
    34    81    82    1
    35    37    38    1
    36   172   170   am
    37   142   143    1
    38   142   144    1
    39   168   167    2
    40    86    87    1
    41   115   116    1
    42    41    38    1
    43    38    39    1
    44    87    88    1
    45    87    90    1
    46   153   154    1
    47   170   169    1
    48   170   171    2
    49   169   166    1
    50    82    83    2
    51    88    89    2
    52   176   175    2
    53   167   166    1
    54   167   173   am
    55    84    83    1
    56   120   121    1
    57   120   117   am
    58   165   166    1
    59   165   155   am
    60    91    90    1
    61    91    92    1
    62   175   174    1
    63   121   122    1
    64    83    85    1
    65   174   173    1
    66   174   177    1
    67    39    40    2
    68   116   117    1
    69   116   119    1
    70   154   155    1
    71   154   157    1
    72    93    92    1
    73    93    94    1
    74   117   118    2
    75   155   156    2
    76   127   126    2
    77   159   161   ar
    78   159   158   ar
    79   161   163   ar
    80   122   123    2
    81   122   124   am
    82   131   132    2
    83   131   130    1
    84   157   158    1
    85   158   160   ar
    86   124   125    1
    87   163   164    1
    88   163   162   ar
    89   126   125    1
    90   126   129   am
    91   160   162   ar
    92   130   129    1
    93   130   133    1
    94   125   128    1
    95    42    43    1
    96    48    46    1
    97   178   179    1
    98    70    69    2
    99    47    46    1
   100   134   133    1
   101   134   136    1
   102    68    69    1
   103    68    67    1
   104    95    96    1
   105    97    96    1
   106    97    98    2
   107   133   135    1
   108    46    43    1
   109    43    44    1
   110    99    96    1
   111    99   100    1
   112   179   180    1
   113    67    62   am
   114   101   100    1
   115   101   102    1
   116    65    64    1
   117    63    62    2
   118   180   181    2
   119    33    32    2
   120    62    61    1
   121    49    44   am
   122    49    50    1
   123   103   102    1
   124    44    45    2
   125    36    34    1
   126    64    61    1
   127    64    66    1
   128    32    31    1
   129    61    60    1
   130    50    51    1
   131    52    51    2
   132   182   183    1
   133    51    53   am
   134    34    31    1
   135    34    35    1
   136    31    30    1
   137    60    55   am
   138   186   183    1
   139   186   187    1
   140   183   184    1
   141    55    56    2
   142    55    54    1
   143    53    54    1
   144    53    59    1
   145   187   188    1
   146    54    57    1
   147    59    58    1
   148   184   185    2
   149    27    26    2
   150   188   189    1
   151    58    57    1
   152    26    25    1
   153    23    22    2
   154    25    28    1
   155    25    24    1
   156   190   189    1
   157    29    28    1
   158    22    24   am
   159    22    21    1
   160    19    17   am
   161    15    14    2
   162     9    11   ar
   163     9     7   ar
   164    11    10   ar
   165    21    20    1
   166    17    16    1
   167    17    18    2
   168    14    20   am
   169    14    13    1
   170     7     6   ar
   171    16    13    1
   172    10     8   ar
   173    13    12    1
   174     6     8   ar
   175     6     5    1
   176     5     2    1
   177     2     3    1
   178     2     1    1
   179     4     3    2
