@<TRIPOS>MOLECULE
tmp/1ludA01.pdb
 164 161 0 0 0
SMALL
GASTEIGER

@<TRIPOS>ATOM
      1  N          0.8630    3.2440    1.3620 N.3     4  LEU4       -0.1231
      2  CA         1.6770    2.2500    2.1180 C.3     4  LEU4        0.1693
      3  C          2.1590    1.1510    1.1660 C.2     4  LEU4        0.2592
      4  O          1.4460    0.2100    0.8860 O.2     4  LEU4       -0.2718
      5  CB         0.8070    1.6360    3.2210 C.3     4  LEU4        0.0284
      6  CG         1.5540    0.4900    3.9110 C.3     4  LEU4        0.0019
      7  CD1        2.8280    1.0230    4.5650 C.3     4  LEU4        0.0001
      8  CD2        0.6520   -0.1240    4.9820 C.3     4  LEU4        0.0001
      9  N          3.3640    1.2620    0.6660 N.am    5  TRP5       -0.1962
     10  CA         3.8780    0.2150   -0.2630 C.3     5  TRP5        0.1771
     11  C          5.3260   -0.1380    0.0860 C.2     5  TRP5        0.2619
     12  O          5.9210    0.4310    0.9810 O.2     5  TRP5       -0.2715
     13  CB         3.7940    0.7180   -1.7080 C.3     5  TRP5        0.0590
     14  CG         4.8370    1.7600   -1.9780 C.ar    5  TRP5        0.0006
     15  CD1        5.9910    1.5420   -2.6520 C.ar    5  TRP5        0.0946
     16  CD2        4.8370    3.1700   -1.6100 C.ar    5  TRP5        0.0152
     17  NE1        6.6910    2.7340   -2.7380 N.ar    5  TRP5       -0.2442
     18  CE2        6.0230    3.7640   -2.1070 C.ar    5  TRP5        0.0810
     19  CE3        3.9330    3.9860   -0.9050 C.ar    5  TRP5        0.0012
     20  CZ2        6.2980    5.1160   -1.9150 C.ar    5  TRP5        0.0191
     21  CZ3        4.2120    5.3490   -0.7090 C.ar    5  TRP5        0.0001
     22  CH2        5.3910    5.9120   -1.2130 C.ar    5  TRP5        0.0015
     23  N          5.8880   -1.0780   -0.6200 N.am    6  ALA6       -0.1977
     24  CA         7.2950   -1.4870   -0.3550 C.3     6  ALA6        0.1597
     25  C          8.0380   -1.5640   -1.6870 C.2     6  ALA6        0.2287
     26  O          7.5130   -2.0510   -2.6690 O.2     6  ALA6       -0.2864
     27  CB         7.3140   -2.8570    0.3260 C.3     6  ALA6        0.0319
     28  N          5.7280   -4.8990   -7.4560 N.3    14  GLY14      -0.1225
     29  CA         5.3050   -6.3190   -7.6420 C.3    14  GLY14       0.1811
     30  C          5.3000   -6.6640   -9.1300 C.2    14  GLY14       0.2280
     31  O          4.9490   -5.8510   -9.9610 O.2    14  GLY14      -0.2866
     32  N          1.6200  -10.1460  -10.4400 N.3    17  GLY17      -0.1210
     33  CA         0.8570  -10.5960   -9.2380 C.3    17  GLY17       0.1956
     34  C          1.7540  -10.7910   -8.0080 C.2    17  GLY17       0.2612
     35  O          1.8210   -9.9450   -7.1380 O.2    17  GLY17      -0.2717
     36  N          2.3990  -11.9210   -7.9080 N.am   18  HIS18      -0.1961
     37  CA         3.2450  -12.2120   -6.7100 C.3    18  HIS18       0.1787
     38  C          4.4480  -11.2700   -6.6180 C.2    18  HIS18       0.2620
     39  O          5.1240  -11.0020   -7.5920 O.2    18  HIS18      -0.2715
     40  CB         3.7440  -13.6560   -6.7900 C.3    18  HIS18       0.0785
     41  CG         4.4610  -13.8690   -8.0950 C.ar   18  HIS18       0.0821
     42  ND1        5.7720  -13.4650   -8.2920 N.ar   18  HIS18      -0.2267
     43  CD2        4.0630  -14.4410   -9.2780 C.ar   18  HIS18       0.1154
     44  CE1        6.1140  -13.7960   -9.5500 C.ar   18  HIS18       0.1986
     45  NE2        5.1080  -14.3930  -10.1960 N.ar   18  HIS18      -0.2212
     46  N          4.7240  -10.7840   -5.4320 N.am   19  LEU19      -0.1977
     47  CA         5.8930   -9.8750   -5.2340 C.3    19  LEU19       0.1596
     48  C          7.1520  -10.5700   -5.7660 C.2    19  LEU19       0.2287
     49  O          7.1700  -11.7760   -5.9120 O.2    19  LEU19      -0.2864
     50  CB         6.0710   -9.5920   -3.7380 C.3    19  LEU19       0.0297
     51  CG         5.3790   -8.2770   -3.3680 C.3    19  LEU19       0.0022
     52  CD1        4.7210   -8.4170   -1.9950 C.3    19  LEU19       0.0001
     53  CD2        6.4140   -7.1520   -3.3130 C.3    19  LEU19       0.0001
     54  N         10.6930  -12.1560   -1.3750 N.3    22  HIS22      -0.1241
     55  CA         9.9020  -12.7270   -0.2500 C.3    22  HIS22       0.1621
     56  C         10.3900  -12.1040    1.0610 C.2    22  HIS22       0.2264
     57  O         11.3750  -12.5320    1.6310 O.2    22  HIS22      -0.2867
     58  CB        10.0960  -14.2440   -0.2060 C.3    22  HIS22       0.0745
     59  CG         9.0730  -14.8540    0.7110 C.ar   22  HIS22       0.0817
     60  ND1        9.4290  -15.5850    1.8340 N.ar   22  HIS22      -0.2268
     61  CD2        7.7000  -14.8500    0.6860 C.ar   22  HIS22       0.1154
     62  CE1        8.2940  -15.9870    2.4330 C.ar   22  HIS22       0.1986
     63  NE2        7.2100  -15.5670    1.7740 N.ar   22  HIS22      -0.2212
     64  N          8.4050   -7.6140    6.0370 N.3    26  ASP26      -0.1225
     65  CA         7.6510   -6.5230    5.3530 C.3    26  ASP26       0.1805
     66  C          6.1500   -6.7600    5.5350 C.2    26  ASP26       0.2597
     67  O          5.4010   -5.8430    5.8100 O.2    26  ASP26      -0.2718
     68  CB         8.0100   -6.5130    3.8630 C.3    26  ASP26       0.1424
     69  CG         7.1370   -5.5060    3.1090 C.2    26  ASP26       0.3668
     70  OD1        7.0130   -4.3780    3.5720 O.co2  26  ASP26      -0.2456
     71  OD2        6.5980   -5.8870    2.0840 O.co2  26  ASP26      -0.2456
     72  N          5.7000   -7.9820    5.3880 N.am   27  LEU27      -0.1979
     73  CA         4.2450   -8.2690    5.5590 C.3    27  LEU27       0.1596
     74  C          3.7830   -7.7400    6.9190 C.2    27  LEU27       0.2287
     75  O          2.7990   -7.0320    7.0180 O.2    27  LEU27      -0.2864
     76  CB         4.0080   -9.7800    5.4940 C.3    27  LEU27       0.0297
     77  CG         4.4220  -10.3060    4.1180 C.3    27  LEU27       0.0022
     78  CD1        4.6590  -11.8140    4.1990 C.3    27  LEU27       0.0001
     79  CD2        3.3090  -10.0210    3.1060 C.3    27  LEU27       0.0001
     80  N          4.9620   -5.4240    8.5840 N.3    29  TYR29      -0.1227
     81  CA         4.9590   -3.9370    8.4920 C.3    29  TYR29       0.1736
     82  C          3.6830   -3.4830    7.7820 C.2    29  TYR29       0.2595
     83  O          3.1000   -2.4710    8.1160 O.2    29  TYR29      -0.2718
     84  CB         6.1800   -3.4710    7.6970 C.3    29  TYR29       0.0548
     85  CG         6.2760   -1.9660    7.7610 C.ar   29  TYR29      -0.0200
     86  CD1        6.7920   -1.3460    8.9050 C.ar   29  TYR29      -0.0009
     87  CD2        5.8480   -1.1900    6.6770 C.ar   29  TYR29      -0.0009
     88  CE1        6.8810    0.0500    8.9650 C.ar   29  TYR29       0.0417
     89  CE2        5.9370    0.2060    6.7370 C.ar   29  TYR29       0.0417
     90  CZ         6.4530    0.8260    7.8810 C.ar   29  TYR29       0.1957
     91  OH         6.5410    2.2030    7.9410 O.3    29  TYR29      -0.2866
     92  N          3.2500   -4.2290    6.8010 N.am   30  PHE30      -0.1962
     93  CA         2.0130   -3.8550    6.0570 C.3    30  PHE30       0.1771
     94  C          0.8030   -3.9960    6.9810 C.2    30  PHE30       0.2619
     95  O         -0.0180   -3.1070    7.0850 O.2    30  PHE30      -0.2715
     96  CB         1.8450   -4.7840    4.8510 C.3    30  PHE30       0.0574
     97  CG         0.6430   -4.3570    4.0430 C.ar   30  PHE30      -0.0200
     98  CD1        0.5880   -3.0690    3.4960 C.ar   30  PHE30      -0.0042
     99  CD2       -0.4160   -5.2490    3.8390 C.ar   30  PHE30      -0.0042
    100  CE1       -0.5260   -2.6740    2.7440 C.ar   30  PHE30      -0.0003
    101  CE2       -1.5300   -4.8550    3.0880 C.ar   30  PHE30      -0.0003
    102  CZ        -1.5860   -3.5670    2.5410 C.ar   30  PHE30      -0.0000
    103  N          0.6900   -5.1070    7.6560 N.am   31  ARG31      -0.1977
    104  CA        -0.4620   -5.3160    8.5770 C.3    31  ARG31       0.1597
    105  C         -0.3960   -4.2920    9.7140 C.2    31  ARG31       0.2287
    106  O         -1.2900   -3.4880    9.8910 O.2    31  ARG31      -0.2864
    107  CB        -0.3810   -6.7310    9.1540 C.3    31  ARG31       0.0334
    108  CG        -1.6650   -7.0600    9.9150 C.3    31  ARG31       0.0492
    109  CD        -1.4010   -8.2410   10.8500 C.3    31  ARG31       0.2205
    110  NE        -0.5090   -7.7980   11.9630 N.pl3  31  ARG31      -0.0865
    111  CZ         0.5270   -8.5170   12.3310 C.cat  31  ARG31       0.5346
    112  NH1        0.7980   -9.6600   11.7510 N.pl3  31  ARG31       0.1354
    113  NH2        1.2930   -8.0910   13.2970 N.pl3  31  ARG31       0.1354
    114  N         -4.9660   -6.3980   -6.9030 N.3    45  THR45      -0.1218
    115  CA        -4.2420   -6.8450   -5.6780 C.3    45  THR45       0.1862
    116  C         -5.1600   -7.7160   -4.8170 C.2    45  THR45       0.2287
    117  O         -4.8030   -8.8140   -4.4350 O.2    45  THR45      -0.2866
    118  CB        -3.8020   -5.6230   -4.8680 C.3    45  THR45       0.1770
    119  OG1       -3.3000   -4.6260   -5.7490 O.3    45  THR45      -0.2211
    120  CG2       -2.7090   -6.0320   -3.8780 C.3    45  THR45       0.0375
    121  N         -5.0490  -10.9540   -5.8960 N.3    48  SER48      -0.1202
    122  CA        -3.7180  -11.6250   -5.8240 C.3    48  SER48       0.2020
    123  C         -3.3180  -11.8470   -4.3590 C.2    48  SER48       0.2619
    124  O         -2.4840  -12.6790   -4.0590 O.2    48  SER48      -0.2717
    125  CB        -2.6690  -10.7510   -6.5150 C.3    48  SER48       0.2103
    126  OG        -2.3860  -11.2870   -7.8010 O.3    48  SER48      -0.2182
    127  N         -3.8970  -11.1060   -3.4450 N.am   49  PHE49      -0.1962
    128  CA        -3.5460  -11.2700   -1.9970 C.3    49  PHE49       0.1756
    129  C         -3.5840  -12.7600   -1.6160 C.2    49  PHE49       0.2461
    130  O         -4.2740  -13.5370   -2.2460 O.2    49  PHE49      -0.2730
    131  CB        -4.5670  -10.5110   -1.1430 C.3    49  PHE49       0.0574
    132  CG        -3.9300   -9.2900   -0.5220 C.ar   49  PHE49      -0.0200
    133  CD1       -3.3030   -9.3900    0.7250 C.ar   49  PHE49      -0.0042
    134  CD2       -3.9710   -8.0590   -1.1860 C.ar   49  PHE49      -0.0042
    135  CE1       -2.7150   -8.2650    1.3060 C.ar   49  PHE49      -0.0003
    136  CE2       -3.3820   -6.9300   -0.6020 C.ar   49  PHE49      -0.0003
    137  CZ        -2.7540   -7.0340    0.6440 C.ar   49  PHE49      -0.0000
    138  N         -2.8400  -13.1160   -0.5930 N.am   50  PRO50      -0.2727
    139  CA        -2.7200  -14.5070   -0.0410 C.3    50  PRO50       0.1402
    140  C         -3.8780  -14.8060    0.9200 C.2    50  PRO50       0.2269
    141  O         -4.6240  -15.7470    0.7280 O.2    50  PRO50      -0.2865
    142  CB        -1.3900  -14.5550    0.7090 C.3    50  PRO50       0.0296
    143  CG        -0.9060  -13.1260    0.8620 C.3    50  PRO50       0.0237
    144  CD        -1.9590  -12.2210    0.2310 C.3    50  PRO50       0.0939
    145  N         -8.0420   -9.2990    5.8390 N.3    54  LEU54      -0.1245
    146  CA        -7.1210   -9.3350    7.0120 C.3    54  LEU54       0.1561
    147  C         -7.9410   -9.4000    8.3070 C.2    54  LEU54       0.2260
    148  O         -9.0690   -8.9500    8.3450 O.2    54  LEU54      -0.2867
    149  CB        -6.2540   -8.0750    7.0200 C.3    54  LEU54       0.0270
    150  CG        -5.2500   -8.1400    5.8670 C.3    54  LEU54       0.0019
    151  CD1       -5.0110   -6.7320    5.3200 C.3    54  LEU54       0.0001
    152  CD2       -3.9270   -8.7260    6.3730 C.3    54  LEU54       0.0001
    153  N         -3.2460    0.7720   -0.3790 N.3    97  ALA97      -0.1245
    154  CA        -2.4520   -0.4880   -0.3100 C.3    97  ALA97       0.1562
    155  C         -2.0310   -0.9010   -1.7270 C.2    97  ALA97       0.2260
    156  O         -1.3200   -1.8690   -1.9140 O.2    97  ALA97      -0.2867
    157  CB        -3.2980   -1.5940    0.3200 C.3    97  ALA97       0.0290
    158  N          8.8410    1.1880    1.9540 N.3   116  THR116     -0.1218
    159  CA         9.9220    0.3200    2.5060 C.3   116  THR116      0.1862
    160  C         11.0070    0.1490    1.4390 C.2   116  THR116      0.2287
    161  O         10.7840   -0.4610    0.4120 O.2   116  THR116     -0.2866
    162  CB         9.3580   -1.0620    2.8640 C.3   116  THR116      0.1770
    163  OG1        7.9940   -0.9480    3.2500 O.3   116  THR116     -0.2211
    164  CG2       10.1670   -1.6580    4.0160 C.3   116  THR116      0.0375
@<TRIPOS>BOND
     1    32    33    1
     2    45    44   ar
     3    45    43   ar
     4    31    30    2
     5    44    42   ar
     6    43    41   ar
     7    33    34    1
     8    30    29    1
     9    42    41   ar
    10    41    40    1
    11    34    36   am
    12    34    35    2
    13    36    37    1
    14   126   125    1
    15    29    28    1
    16    39    38    2
    17   114   115    1
    18    40    37    1
    19    37    38    1
    20    38    46   am
    21   125   122    1
    22    49    48    2
    23   121   122    1
    24   122   123    1
    25    48    47    1
    26   119   118    1
    27   115   118    1
    28   115   116    1
    29    46    47    1
    30    47    50    1
    31   118   120    1
    32   116   117    2
    33   123   124    2
    34   123   127   am
    35    50    51    1
    36   127   128    1
    37    51    53    1
    38    51    52    1
    39    17    15   ar
    40    17    18   ar
    41    26    25    2
    42    15    14   ar
    43   130   129    2
    44    18    20   ar
    45    18    16   ar
    46   128   129    1
    47   128   131    1
    48    14    13    1
    49    14    16   ar
    50    20    22   ar
    51   156   155    2
    52   155   154    1
    53    13    10    1
    54    25    24    1
    55   129   138   am
    56    16    19   ar
    57    54    55    1
    58    22    21   ar
    59   134   136   ar
    60   134   132   ar
    61   131   132    1
    62    19    21   ar
    63    23    24    1
    64    23    11   am
    65   136   137   ar
    66   138   139    1
    67   138   144    1
    68   132   133   ar
    69   153   154    1
    70    24    27    1
    71   154   157    1
    72    10    11    1
    73    10     9    1
    74    55    58    1
    75    55    56    1
    76    58    59    1
    77   139   142    1
    78   139   140    1
    79    11    12    2
    80   144   143    1
    81   161   160    2
    82   137   135   ar
    83     9     3   am
    84    61    59   ar
    85    61    63   ar
    86   142   143    1
    87    59    60   ar
    88   133   135   ar
    89   141   140    2
    90     4     3    2
    91    56    57    2
    92     3     2    1
    93     1     2    1
    94   160   159    1
    95    63    62   ar
    96    60    62   ar
    97   158   159    1
    98    71    69   ar
    99     2     5    1
   100   159   162    1
   101   102   100   ar
   102   102   101   ar
   103   100    98   ar
   104   162   163    1
   105   162   164    1
   106   101    99   ar
   107    79    77    1
   108    69    70   ar
   109    69    68    1
   110     5     6    1
   111    98    97   ar
   112    99    97   ar
   113    68    65    1
   114     6     7    1
   115     6     8    1
   116    97    96    1
   117    77    78    1
   118    77    76    1
   119    96    93    1
   120   151   150    1
   121    65    66    1
   122    65    64    1
   123    72    66   am
   124    72    73    1
   125    76    73    1
   126    66    67    2
   127    73    74    1
   128   145   146    1
   129   150   152    1
   130   150   149    1
   131    93    92    1
   132    93    94    1
   133    87    89   ar
   134    87    85   ar
   135    89    90   ar
   136    92    82   am
   137    74    75    2
   138    94    95    2
   139    94   103   am
   140   146   149    1
   141   146   147    1
   142   103   104    1
   143    84    85    1
   144    84    81    1
   145    85    86   ar
   146    82    83    2
   147    82    81    1
   148    90    91    1
   149    90    88   ar
   150   147   148    2
   151    81    80    1
   152   104   107    1
   153   104   105    1
   154    86    88   ar
   155   107   108    1
   156   105   106    2
   157   108   109    1
   158   109   110    1
   159   112   111    1
   160   110   111    2
   161   111   113    1
