@<TRIPOS>MOLECULE
tmp/1lvcA00.pdb
 209 197 0 0 0
SMALL
GASTEIGER

@<TRIPOS>ATOM
      1  N         37.6980   75.7390   35.8280 N.3    38  ARG38      -0.1245
      2  CA        36.2500   75.5250   35.8170 C.3    38  ARG38       0.1563
      3  C         35.7100   76.7280   36.5610 C.2    38  ARG38       0.2260
      4  O         36.4640   77.4350   37.2310 O.2    38  ARG38      -0.2867
      5  CB        35.8480   74.2760   36.6100 C.3    38  ARG38       0.0307
      6  CG        36.1770   72.9920   35.9370 C.3    38  ARG38       0.0489
      7  CD        34.9410   72.1480   35.7690 C.3    38  ARG38       0.2205
      8  NE        34.6520   71.3860   36.9740 N.pl3  38  ARG38      -0.0865
      9  CZ        33.6370   71.6140   37.7940 C.cat  38  ARG38       0.5346
     10  NH1       32.7760   72.5910   37.5560 N.pl3  38  ARG38       0.1354
     11  NH2       33.5010   70.8570   38.8630 N.pl3  38  ARG38       0.1354
     12  N         32.4460   79.4640   42.3990 N.3    41  ASN41      -0.1240
     13  CA        31.3710   80.1260   43.1420 C.3    41  ASN41       0.1653
     14  C         31.7530   81.5950   43.4270 C.2    41  ASN41       0.2266
     15  O         32.5700   81.8810   44.3110 O.2    41  ASN41      -0.2867
     16  CB        31.1420   79.3860   44.4550 C.3    41  ASN41       0.1155
     17  CG        29.8800   79.8250   45.1710 C.2    41  ASN41       0.2627
     18  OD1       29.2320   80.8220   44.8110 O.2    41  ASN41      -0.2716
     19  ND2       29.5360   79.0880   46.2210 N.am   41  ASN41      -0.0877
     20  N         38.2200   73.6120   49.8450 N.3    55  LYS55      -0.1231
     21  CA        37.9180   72.2240   50.1470 C.3    55  LYS55       0.1693
     22  C         38.5470   71.1310   49.3310 C.2    55  LYS55       0.2593
     23  O         38.2740   70.9890   48.1570 O.2    55  LYS55      -0.2718
     24  CB        36.4140   72.0220   50.0720 C.3    55  LYS55       0.0285
     25  CG        35.8530   72.3760   48.7160 C.3    55  LYS55       0.0035
     26  CD        34.4910   71.7800   48.5560 C.3    55  LYS55       0.0206
     27  CE        33.9440   72.0060   47.1850 C.3    55  LYS55       0.1093
     28  NZ        32.6800   71.2550   47.0300 N.3    55  LYS55      -0.1314
     29  N         39.3320   70.2980   50.0030 N.am   56  GLY56      -0.1942
     30  CA        39.9840   69.1890   49.3220 C.3    56  GLY56       0.2014
     31  C         39.0390   68.2820   48.5420 C.2    56  GLY56       0.2638
     32  O         37.8810   68.6310   48.2990 O.2    56  GLY56      -0.2714
     33  N         39.5330   67.1120   48.1390 N.am   57  LEU57      -0.1977
     34  CA        38.7080   66.1670   47.3910 C.3    57  LEU57       0.1596
     35  C         37.9320   65.2230   48.3050 C.2    57  LEU57       0.2287
     36  O         37.0730   64.4770   47.8330 O.2    57  LEU57      -0.2864
     37  CB        39.5710   65.3720   46.4120 C.3    57  LEU57       0.0297
     38  CG        38.7650   64.6740   45.3120 C.3    57  LEU57       0.0022
     39  CD1       39.5940   64.5550   44.0560 C.3    57  LEU57       0.0001
     40  CD2       38.3400   63.2910   45.7780 C.3    57  LEU57       0.0001
     41  N         35.9460   66.2600   50.5660 N.3    59  VAL59      -0.1231
     42  CA        34.6770   66.9370   50.8290 C.3    59  VAL59       0.1692
     43  C         33.9190   67.0650   49.5050 C.2    59  VAL59       0.2592
     44  O         34.4580   67.5630   48.5290 O.2    59  VAL59      -0.2718
     45  CB        34.8740   68.3370   51.4170 C.3    59  VAL59       0.0266
     46  CG1       33.5900   69.1380   51.2450 C.3    59  VAL59       0.0020
     47  CG2       35.2440   68.2400   52.8880 C.3    59  VAL59       0.0020
     48  N         32.6750   66.6030   49.4580 N.am   60  HIS60      -0.1976
     49  CA        31.9060   66.6800   48.2210 C.3    60  HIS60       0.1656
     50  C         30.6180   67.4770   48.3070 C.2    60  HIS60       0.2291
     51  O         29.8710   67.5590   47.3360 O.2    60  HIS60      -0.2864
     52  CB        31.6070   65.2730   47.7120 C.3    60  HIS60       0.0771
     53  CG        32.7580   64.6430   46.9930 C.ar   60  HIS60       0.0820
     54  ND1       33.3370   63.4590   47.4020 N.ar   60  HIS60      -0.2267
     55  CD2       33.4550   65.0450   45.9020 C.ar   60  HIS60       0.1154
     56  CE1       34.3450   63.1670   46.5990 C.ar   60  HIS60       0.1986
     57  NE2       34.4380   64.1120   45.6810 N.ar   60  HIS60      -0.2212
     58  N         28.2900   70.5360   48.0910 N.3    62  LYS62      -0.1231
     59  CA        28.3670   71.7350   47.2610 C.3    62  LYS62       0.1693
     60  C         28.3460   73.0190   48.0790 C.2    62  LYS62       0.2592
     61  O         27.7630   73.0680   49.1660 O.2    62  LYS62      -0.2718
     62  CB        27.2000   71.7520   46.2990 C.3    62  LYS62       0.0285
     63  CG        27.0770   70.5110   45.4650 C.3    62  LYS62       0.0035
     64  CD        28.1660   70.4310   44.4340 C.3    62  LYS62       0.0206
     65  CE        28.0320   69.1680   43.6000 C.3    62  LYS62       0.1093
     66  NZ        29.1130   69.0920   42.5650 N.3    62  LYS62      -0.1314
     67  N         28.9660   74.0650   47.5540 N.am   63  SER63      -0.1952
     68  CA        29.0060   75.3450   48.2550 C.3    63  SER63       0.1924
     69  C         27.7250   76.0940   47.9710 C.2    63  SER63       0.2314
     70  O         27.1270   75.9290   46.9190 O.2    63  SER63      -0.2863
     71  CB        30.1880   76.1940   47.7730 C.3    63  SER63       0.2116
     72  OG        30.1270   76.3950   46.3650 O.3    63  SER63      -0.2180
     73  N         24.0150   75.5110   46.5840 N.3    81  LYS81      -0.1245
     74  CA        23.5160   75.9800   45.3190 C.3    81  LYS81       0.1561
     75  C         22.5920   74.9450   44.7080 C.2    81  LYS81       0.2260
     76  O         21.9410   75.2220   43.7100 O.2    81  LYS81      -0.2867
     77  CB        24.6690   76.2700   44.3870 C.3    81  LYS81       0.0271
     78  CG        25.5350   75.0810   44.1220 C.3    81  LYS81       0.0035
     79  CD        26.8820   75.5530   43.6790 C.3    81  LYS81       0.0206
     80  CE        27.7220   74.4470   43.1490 C.3    81  LYS81       0.1093
     81  NZ        27.1500   74.0810   41.8350 N.3    81  LYS81      -0.1314
     82  N         21.6270   63.3390   47.7570 N.3    91  LYS91      -0.1231
     83  CA        22.8980   62.6790   47.5270 C.3    91  LYS91       0.1693
     84  C         23.9950   63.6020   48.0650 C.2    91  LYS91       0.2592
     85  O         25.1570   63.2180   48.1940 O.2    91  LYS91      -0.2718
     86  CB        23.0880   62.4170   46.0350 C.3    91  LYS91       0.0285
     87  CG        24.5040   62.0210   45.6490 C.3    91  LYS91       0.0035
     88  CD        24.9640   60.7710   46.4100 C.3    91  LYS91       0.0206
     89  CE        26.4580   60.4940   46.1620 C.3    91  LYS91       0.1093
     90  NZ        26.7710   60.2410   44.6990 N.3    91  LYS91      -0.1314
     91  N         23.5980   64.8260   48.3990 N.am   92  GLY92      -0.1957
     92  CA        24.5400   65.7960   48.9250 C.3    92  GLY92       0.1869
     93  C         24.8950   65.4870   50.3620 C.2    92  GLY92       0.2309
     94  O         26.0300   65.1140   50.6760 O.2    92  GLY92      -0.2863
     95  N         26.8740   62.5890   51.3080 N.3    95  GLU95      -0.1245
     96  CA        28.2830   62.8540   51.0900 C.3    95  GLU95       0.1567
     97  C         28.8910   63.5610   52.2990 C.2    95  GLU95       0.2260
     98  O         29.9980   63.2310   52.7270 O.2    95  GLU95      -0.2867
     99  CB        28.4570   63.7010   49.8400 C.3    95  GLU95       0.0388
    100  CG        28.6480   62.8880   48.5820 C.3    95  GLU95       0.1160
    101  CD        29.7020   61.8090   48.7460 C.2    95  GLU95       0.3649
    102  OE1       30.8230   62.1250   49.2170 O.co2  95  GLU95      -0.2457
    103  OE2       29.4150   60.6460   48.3910 O.co2  95  GLU95      -0.2457
    104  N         34.7930   77.2350   48.4460 N.3   199  ALA199     -0.1231
    105  CA        35.0270   76.5880   47.1690 C.3   199  ALA199      0.1694
    106  C         36.5170   76.4300   46.9500 C.2   199  ALA199      0.2592
    107  O         37.3260   76.9690   47.6920 O.2   199  ALA199     -0.2718
    108  CB        34.4530   77.4140   46.0630 C.3   199  ALA199      0.0304
    109  N         36.9010   75.6830   45.9310 N.am  200  ASP200     -0.1974
    110  CA        38.3210   75.5610   45.6660 C.3   200  ASP200      0.1709
    111  C         38.5170   75.7710   44.1600 C.2   200  ASP200      0.2293
    112  O         37.5360   75.7190   43.4150 O.2   200  ASP200     -0.2864
    113  CB        38.8050   74.2050   46.1460 C.3   200  ASP200      0.1436
    114  CG        38.2600   73.0830   45.3510 C.2   200  ASP200      0.3671
    115  OD1       38.7470   71.9510   45.5130 O.co2 200  ASP200     -0.2456
    116  OD2       37.3640   73.3130   44.5390 O.co2 200  ASP200     -0.2456
    117  N         38.8550   74.5590   40.8420 N.3   202  ASP202     -0.1225
    118  CA        38.8290   73.3260   40.0950 C.3   202  ASP202      0.1805
    119  C         39.4340   73.5370   38.6990 C.2   202  ASP202      0.2597
    120  O         39.0060   74.4030   37.9490 O.2   202  ASP202     -0.2718
    121  CB        37.3940   72.8070   40.0170 C.3   202  ASP202      0.1424
    122  CG        36.9230   72.1210   41.3280 C.2   202  ASP202      0.3668
    123  OD1       36.3770   72.7620   42.2510 O.co2 202  ASP202     -0.2456
    124  OD2       37.0830   70.8960   41.4600 O.co2 202  ASP202     -0.2456
    125  N         40.4520   72.7480   38.3610 N.am  203  LEU203     -0.1979
    126  CA        41.0900   72.8520   37.0600 C.3   203  LEU203      0.1596
    127  C         40.3170   72.0680   36.0170 C.2   203  LEU203      0.2287
    128  O         40.0310   70.8880   36.2010 O.2   203  LEU203     -0.2864
    129  CB        42.5320   72.3270   37.1230 C.3   203  LEU203      0.0297
    130  CG        43.7160   73.3140   37.0130 C.3   203  LEU203      0.0022
    131  CD1       43.7000   74.2930   38.1580 C.3   203  LEU203      0.0001
    132  CD2       45.0230   72.5610   37.0600 C.3   203  LEU203      0.0001
    133  N         43.4770   62.7810   43.6590 N.3   256  GLY256     -0.1210
    134  CA        42.6910   62.0760   42.6650 C.3   256  GLY256      0.1956
    135  C         43.5660   61.5030   41.5650 C.2   256  GLY256      0.2612
    136  O         44.7410   61.2590   41.7760 O.2   256  GLY256     -0.2717
    137  N         43.0070   61.2740   40.3870 N.am  257  THR257     -0.1952
    138  CA        43.8030   60.7470   39.2920 C.3   257  THR257      0.1897
    139  C         44.4780   61.8640   38.5130 C.2   257  THR257      0.2313
    140  O         43.8050   62.6520   37.8590 O.2   257  THR257     -0.2863
    141  CB        42.9390   59.9510   38.3190 C.3   257  THR257      0.1794
    142  OG1       42.5150   58.7470   38.9520 O.3   257  THR257     -0.2208
    143  CG2       43.7120   59.6080   37.0780 C.3   257  THR257      0.0378
    144  N         42.9080   69.0470   43.6350 N.3   286  HIS286     -0.1226
    145  CA        42.7930   67.7900   42.9040 C.3   286  HIS286      0.1752
    146  C         43.0340   67.9190   41.4260 C.2   286  HIS286      0.2597
    147  O         42.9390   68.9910   40.8700 O.2   286  HIS286     -0.2718
    148  CB        41.4190   67.1740   43.1350 C.3   286  HIS286      0.0759
    149  CG        40.3150   68.1730   43.0600 C.ar  286  HIS286      0.0818
    150  ND1       39.9990   68.8400   41.8950 N.ar  286  HIS286     -0.2268
    151  CD2       39.5360   68.7080   44.0240 C.ar  286  HIS286      0.1154
    152  CE1       39.0780   69.7480   42.1480 C.ar  286  HIS286      0.1986
    153  NE2       38.7810   69.6890   43.4290 N.ar  286  HIS286     -0.2212
    154  N         43.3270   66.7940   40.7910 N.am  287  GLY287     -0.1942
    155  CA        43.6300   66.8090   39.3720 C.3   287  GLY287      0.2014
    156  C         42.6070   67.4770   38.4930 C.2   287  GLY287      0.2640
    157  O         41.5670   67.8880   38.9660 O.2   287  GLY287     -0.2714
    158  N         42.9050   67.5640   37.2020 N.am  288  THR288     -0.1936
    159  CA        42.0140   68.1920   36.2260 C.3   288  THR288      0.2028
    160  C         40.7880   67.3580   35.8100 C.2   288  THR288      0.2642
    161  O         40.8330   66.1330   35.7090 O.2   288  THR288     -0.2714
    162  CB        42.7830   68.5420   34.9380 C.3   288  THR288      0.1808
    163  OG1       43.2200   67.3300   34.2950 O.3   288  THR288     -0.2208
    164  CG2       43.9890   69.4090   35.2630 C.3   288  THR288      0.0379
    165  N         39.7040   68.0680   35.5330 N.am  289  GLU289     -0.1976
    166  CA        38.4320   67.4940   35.1150 C.3   289  GLU289      0.1602
    167  C         38.5710   66.3970   34.0890 C.2   289  GLU289      0.2287
    168  O         37.9080   65.3830   34.1780 O.2   289  GLU289     -0.2864
    169  CB        37.5550   68.5940   34.5260 C.3   289  GLU289      0.0415
    170  CG        36.0900   68.2630   34.3900 C.3   289  GLU289      0.1163
    171  CD        35.4760   67.7170   35.6760 C.2   289  GLU289      0.3649
    172  OE1       35.7030   68.3260   36.7470 O.co2 289  GLU289     -0.2457
    173  OE2       34.7550   66.6880   35.6090 O.co2 289  GLU289     -0.2457
    174  N         40.2660   64.1460   33.8670 N.3   291  ASP291     -0.1225
    175  CA        40.6270   62.8830   34.4690 C.3   291  ASP291      0.1805
    176  C         39.5430   62.4330   35.4020 C.2   291  ASP291      0.2597
    177  O         39.6460   61.3780   36.0100 O.2   291  ASP291     -0.2718
    178  CB        41.9510   62.9990   35.2050 C.3   291  ASP291      0.1424
    179  CG        43.1130   62.7150   34.3100 C.2   291  ASP291      0.3668
    180  OD1       43.0060   61.7450   33.5430 O.co2 291  ASP291     -0.2456
    181  OD2       44.1160   63.4640   34.3700 O.co2 291  ASP291     -0.2456
    182  N         38.5070   63.2530   35.5060 N.am  292  ASN292     -0.1974
    183  CA        37.3500   62.9630   36.3220 C.3   292  ASN292      0.1688
    184  C         36.4230   62.2720   35.3250 C.2   292  ASN292      0.2292
    185  O         35.8060   62.9060   34.4800 O.2   292  ASN292     -0.2864
    186  CB        36.7570   64.2750   36.8400 C.3   292  ASN292      0.1181
    187  CG        35.5550   64.0610   37.7500 C.2   292  ASN292      0.2629
    188  OD1       35.1980   62.9210   38.0680 O.2   292  ASN292     -0.2716
    189  ND2       34.9330   65.1580   38.1890 N.am  292  ASN292     -0.0877
    190  N         32.1790   61.4770   37.5330 N.3   295  PHE295     -0.1241
    191  CA        31.1980   62.5300   37.7400 C.3   295  PHE295      0.1605
    192  C         31.4990   63.7630   36.9260 C.2   295  PHE295      0.2264
    193  O         31.5440   64.8680   37.4650 O.2   295  PHE295     -0.2867
    194  CB        31.1320   62.9250   39.2140 C.3   295  PHE295      0.0534
    195  CG        30.6420   61.8310   40.0950 C.ar  295  PHE295     -0.0203
    196  CD1       31.5280   60.9030   40.6300 C.ar  295  PHE295     -0.0042
    197  CD2       29.2810   61.6690   40.3220 C.ar  295  PHE295     -0.0042
    198  CE1       31.0680   59.8280   41.3730 C.ar  295  PHE295     -0.0003
    199  CE2       28.8090   60.5980   41.0610 C.ar  295  PHE295     -0.0003
    200  CZ        29.7110   59.6740   41.5870 C.ar  295  PHE295     -0.0000
    201  N         31.4140   67.0540   34.8190 N.3   297  GLU297     -0.1245
    202  CA        30.5670   68.2350   34.7740 C.3   297  GLU297      0.1567
    203  C         30.8000   68.9500   33.4440 C.2   297  GLU297      0.2260
    204  O         31.9190   69.0650   32.9750 O.2   297  GLU297     -0.2867
    205  CB        30.9310   69.1960   35.9040 C.3   297  GLU297      0.0388
    206  CG        30.9810   68.5910   37.3080 C.3   297  GLU297      0.1160
    207  CD        29.6310   68.6060   38.0000 C.2   297  GLU297      0.3649
    208  OE1       28.7810   69.4330   37.6040 O.co2 297  GLU297     -0.2457
    209  OE2       29.4300   67.8040   38.9470 O.co2 297  GLU297     -0.2457
@<TRIPOS>BOND
     1   204   203    2
     2   203   202    1
     3   180   179   ar
     4   174   175    1
     5   167   168    2
     6   167   166    1
     7   163   162    1
     8   179   181   ar
     9   179   178    1
    10   170   169    1
    11   170   171    1
    12   175   178    1
    13   175   176    1
    14   185   184    2
    15   169   166    1
    16   202   201    1
    17   202   205    1
    18   162   164    1
    19   162   159    1
    20   166   165    1
    21   184   183    1
    22   176   182   am
    23   176   177    2
    24   182   183    1
    25   165   160   am
    26   173   171   ar
    27   171   172   ar
    28   161   160    2
    29     7     6    1
    30     7     8    1
    31   160   159    1
    32     2     1    1
    33     2     3    1
    34     2     5    1
    35   205   206    1
    36     6     5    1
    37   127   128    2
    38   127   126    1
    39   159   158    1
    40   183   186    1
    41     3     4    2
    42   186   187    1
    43   192   193    2
    44   192   191    1
    45     8     9    2
    46   130   132    1
    47   130   129    1
    48   130   131    1
    49   126   129    1
    50   126   125    1
    51   143   141    1
    52   158   156   am
    53   206   207    1
    54   190   191    1
    55    10     9    1
    56   208   207   ar
    57   191   194    1
    58   187   188    2
    59   187   189   am
    60     9    11    1
    61   140   139    2
    62   120   119    2
    63   207   209   ar
    64   141   142    1
    65   141   138    1
    66   125   119   am
    67   156   157    2
    68   156   155    1
    69   139   138    1
    70   119   118    1
    71   194   195    1
    72   138   137    1
    73   155   154    1
    74   121   118    1
    75   121   122    1
    76   195   197   ar
    77   195   196   ar
    78   118   117    1
    79   197   199   ar
    80   137   135   am
    81   196   198   ar
    82   154   146   am
    83   147   146    2
    84   199   200   ar
    85   122   124   ar
    86   122   123   ar
    87   198   200   ar
    88   146   145    1
    89   135   136    2
    90   135   134    1
    91    81    80    1
    92   150   152   ar
    93   150   149   ar
    94   152   153   ar
    95    12    13    1
    96    66    65    1
    97   134   133    1
    98   145   148    1
    99   145   144    1
   100   149   148    1
   101   149   151   ar
   102    13    14    1
   103    13    16    1
   104    80    79    1
   105   112   111    2
   106    14    15    2
   107   153   151   ar
   108    65    64    1
   109    79    78    1
   110    76    75    2
   111    39    38    1
   112    78    77    1
   113   111   110    1
   114    77    74    1
   115    64    63    1
   116    16    17    1
   117   116   114   ar
   118    90    89    1
   119    75    74    1
   120    18    17    2
   121    17    19   am
   122    38    40    1
   123    38    37    1
   124    74    73    1
   125   114   115   ar
   126   114   113    1
   127    63    62    1
   128    87    86    1
   129    87    88    1
   130   110   109    1
   131   110   113    1
   132    57    55   ar
   133    57    56   ar
   134    55    53   ar
   135   109   106   am
   136    86    83    1
   137   108   105    1
   138    89    88    1
   139    62    59    1
   140    72    71    1
   141    37    34    1
   142    56    54   ar
   143    70    69    2
   144   106   105    1
   145   106   107    2
   146    53    54   ar
   147    53    52    1
   148    28    27    1
   149   105   104    1
   150    27    26    1
   151    59    60    1
   152    59    58    1
   153    51    50    2
   154    34    33    1
   155    34    35    1
   156    83    82    1
   157    83    84    1
   158    67    60   am
   159    67    68    1
   160    52    49    1
   161    71    68    1
   162    36    35    2
   163    69    68    1
   164    84    85    2
   165    84    91   am
   166    60    61    2
   167    33    31   am
   168    23    22    2
   169    49    50    1
   170    49    48    1
   171    32    31    2
   172   103   101   ar
   173    91    92    1
   174    44    43    2
   175    31    30    1
   176    26    25    1
   177   100   101    1
   178   100    99    1
   179    25    24    1
   180   101   102   ar
   181    92    93    1
   182    30    29    1
   183    22    29   am
   184    22    21    1
   185    48    43   am
   186    43    42    1
   187    99    96    1
   188    20    21    1
   189    24    21    1
   190    93    94    2
   191    41    42    1
   192    42    45    1
   193    96    95    1
   194    96    97    1
   195    46    45    1
   196    45    47    1
   197    97    98    2
