@<TRIPOS>MOLECULE
tmp/1lvgA00.pdb
 114 107 0 0 0
SMALL
GASTEIGER

@<TRIPOS>ATOM
      1  N         86.8960  -23.3950   51.9820 N.3     9  SER9       -0.1202
      2  CA        85.9700  -24.3770   52.5460 C.3     9  SER9        0.2020
      3  C         84.9820  -23.5890   53.4160 C.2     9  SER9        0.2619
      4  O         85.3900  -22.7810   54.2640 O.2     9  SER9       -0.2717
      5  CB        86.7340  -25.3690   53.4250 C.3     9  SER9        0.2103
      6  OG        85.8450  -26.1770   54.1830 O.3     9  SER9       -0.2182
      7  N         83.6910  -23.8220   53.2170 N.am   10  GLY10      -0.1942
      8  CA        82.6920  -23.1090   53.9950 C.3    10  GLY10       0.2014
      9  C         82.1150  -21.8770   53.3000 C.2    10  GLY10       0.2639
     10  O         81.1750  -21.2580   53.8130 O.2    10  GLY10      -0.2714
     11  N         82.6570  -21.5340   52.1280 N.am   11  ALA11      -0.1963
     12  CA        82.2190  -20.3630   51.3540 C.3    11  ALA11       0.1728
     13  C         80.7790  -20.3870   50.8520 C.2    11  ALA11       0.2617
     14  O         80.1650  -19.3270   50.6920 O.2    11  ALA11      -0.2715
     15  CB        83.1720  -20.1320   50.1610 C.3    11  ALA11       0.0334
     16  N         80.2410  -21.5790   50.6010 N.am   12  GLY12      -0.1940
     17  CA        78.8790  -21.6920   50.0960 C.3    12  GLY12       0.2014
     18  C         78.7840  -22.3190   48.7090 C.2    12  GLY12       0.2639
     19  O         77.7460  -22.2240   48.0420 O.2    12  GLY12      -0.2714
     20  N         79.8540  -22.9750   48.2670 N.am   13  LYS13      -0.1963
     21  CA        79.8280  -23.5800   46.9390 C.3    13  LYS13       0.1728
     22  C         78.7970  -24.6980   46.7980 C.2    13  LYS13       0.2617
     23  O         78.0120  -24.6840   45.8600 O.2    13  LYS13      -0.2715
     24  CB        81.2130  -24.1140   46.5530 C.3    13  LYS13       0.0311
     25  CG        82.3340  -23.0580   46.6460 C.3    13  LYS13       0.0038
     26  CD        83.7210  -23.6730   46.3390 C.3    13  LYS13       0.0206
     27  CE        84.1180  -24.7940   47.3030 C.3    13  LYS13       0.1093
     28  NZ        84.5600  -24.2920   48.6340 N.3    13  LYS13      -0.1314
     29  N         78.7850  -25.6770   47.7070 N.am   14  SER14      -0.1936
     30  CA        77.8020  -26.7490   47.5700 C.3    14  SER14       0.2055
     31  C         76.3930  -26.1810   47.6500 C.2    14  SER14       0.2643
     32  O         75.4900  -26.6420   46.9420 O.2    14  SER14      -0.2714
     33  CB        77.9470  -27.8150   48.6700 C.3    14  SER14       0.2130
     34  OG        79.2800  -28.2570   48.7590 O.3    14  SER14      -0.2179
     35  N         76.2050  -25.1860   48.5130 N.am   15  THR15      -0.1950
     36  CA        74.8900  -24.5790   48.6780 C.3    15  THR15       0.1897
     37  C         74.4160  -23.8910   47.4080 C.2    15  THR15       0.2313
     38  O         73.2780  -24.0570   46.9890 O.2    15  THR15      -0.2863
     39  CB        74.8490  -23.5440   49.8320 C.3    15  THR15       0.1794
     40  OG1       75.1770  -24.1740   51.0680 O.3    15  THR15      -0.2208
     41  CG2       73.4330  -22.9580   49.9470 C.3    15  THR15       0.0378
     42  N         80.2890  -37.1610   54.7310 N.3    40  ARG40      -0.1245
     43  CA        79.6450  -36.4300   55.8040 C.3    40  ARG40       0.1563
     44  C         78.2200  -36.9440   55.7680 C.2    40  ARG40       0.2260
     45  O         77.7620  -37.4510   54.7370 O.2    40  ARG40      -0.2867
     46  CB        79.6100  -34.9360   55.5100 C.3    40  ARG40       0.0307
     47  CG        80.9640  -34.2980   55.4580 C.3    40  ARG40       0.0489
     48  CD        80.8790  -32.8900   54.9150 C.3    40  ARG40       0.2205
     49  NE        82.2150  -32.3390   54.8340 N.pl3  40  ARG40      -0.0865
     50  CZ        82.5650  -31.3180   54.0710 C.cat  40  ARG40       0.5346
     51  NH1       81.6590  -30.7060   53.3140 N.pl3  40  ARG40       0.1354
     52  NH2       83.8430  -30.9500   54.0310 N.pl3  40  ARG40       0.1354
     53  N         83.7700  -28.1950   41.2070 N.3    97  ASP97      -0.1239
     54  CA        83.9980  -27.5410   42.4990 C.3    97  ASP97       0.1674
     55  C         85.3970  -28.0130   42.9170 C.2    97  ASP97       0.2266
     56  O         85.5710  -29.1710   43.3010 O.2    97  ASP97      -0.2867
     57  CB        82.9220  -28.0070   43.5130 C.3    97  ASP97       0.1410
     58  CG        83.2570  -27.6400   44.9690 C.2    97  ASP97       0.3668
     59  OD1       82.4370  -27.9420   45.8490 O.co2  97  ASP97      -0.2456
     60  OD2       84.3250  -27.0560   45.2530 O.co2  97  ASP97      -0.2456
     61  N         80.4050  -20.0150   60.0160 N.3   129  ARG129     -0.1231
     62  CA        79.5290  -20.9230   59.2620 C.3   129  ARG129      0.1694
     63  C         80.1150  -22.3300   59.1680 C.2   129  ARG129      0.2591
     64  O         79.3940  -23.3240   59.1940 O.2   129  ARG129     -0.2718
     65  CB        79.2980  -20.4010   57.8340 C.3   129  ARG129      0.0321
     66  CG        78.5810  -19.0610   57.7460 C.3   129  ARG129      0.0489
     67  CD        78.4650  -18.6210   56.2850 C.3   129  ARG129      0.2205
     68  NE        77.8210  -17.3330   56.2000 N.pl3 129  ARG129     -0.0865
     69  CZ        77.6590  -16.6410   55.0860 C.cat 129  ARG129      0.5346
     70  NH1       78.1010  -17.1220   53.9280 N.pl3 129  ARG129      0.1354
     71  NH2       77.0580  -15.4620   55.1410 N.pl3 129  ARG129      0.1354
     72  N         81.4310  -22.4140   59.0520 N.am  130  LEU130     -0.1980
     73  CA        82.0750  -23.7070   58.9140 C.3   130  LEU130      0.1596
     74  C         81.9410  -24.4570   60.2180 C.2   130  LEU130      0.2287
     75  O         81.5880  -25.6370   60.2350 O.2   130  LEU130     -0.2864
     76  CB        83.5520  -23.5180   58.4990 C.3   130  LEU130      0.0297
     77  CG        84.2990  -24.7410   57.9580 C.3   130  LEU130      0.0022
     78  CD1       83.5830  -25.3010   56.7620 C.3   130  LEU130      0.0001
     79  CD2       85.7270  -24.3440   57.5610 C.3   130  LEU130      0.0001
     80  N         78.2930  -25.6680   60.5720 N.3   133  ARG133     -0.1245
     81  CA        77.9280  -26.8140   59.7360 C.3   133  ARG133      0.1563
     82  C         78.3220  -28.0620   60.5300 C.2   133  ARG133      0.2260
     83  O         77.7660  -29.1410   60.3460 O.2   133  ARG133     -0.2867
     84  CB        78.6680  -26.7440   58.3900 C.3   133  ARG133      0.0307
     85  CG        78.2280  -27.7930   57.3660 C.3   133  ARG133      0.0489
     86  CD        78.9910  -27.6000   56.0560 C.3   133  ARG133      0.2205
     87  NE        80.3850  -28.0240   56.1620 N.pl3 133  ARG133     -0.0865
     88  CZ        81.3210  -27.7520   55.2500 C.cat 133  ARG133      0.5346
     89  NH1       81.0250  -27.0370   54.1760 N.pl3 133  ARG133      0.1354
     90  NH2       82.5420  -28.2520   55.3770 N.pl3 133  ARG133      0.1354
     91  N         79.3590  -14.3850   49.0370 N.3   167  ASN167     -0.1225
     92  CA        78.1820  -15.0840   49.5210 C.3   167  ASN167      0.1785
     93  C         77.7800  -14.5140   50.8830 C.2   167  ASN167      0.2597
     94  O         77.9840  -15.1360   51.9310 O.2   167  ASN167     -0.2718
     95  CB        78.4470  -16.5800   49.6460 C.3   167  ASN167      0.1169
     96  CG        77.2290  -17.3370   50.1320 C.2   167  ASN167      0.2627
     97  OD1       76.0900  -16.9570   49.8320 O.2   167  ASN167     -0.2716
     98  ND2       77.4530  -18.4240   50.8620 N.am  167  ASN167     -0.0877
     99  N         77.2300  -13.3100   50.8510 N.am  168  ASP168     -0.1974
    100  CA        76.7770  -12.6310   52.0600 C.3   168  ASP168      0.1709
    101  C         75.3210  -13.0470   52.1770 C.2   168  ASP168      0.2293
    102  O         74.9860  -13.9070   53.0000 O.2   168  ASP168     -0.2864
    103  CB        76.9170  -11.1200   51.8880 C.3   168  ASP168      0.1436
    104  CG        76.6460  -10.3650   53.1690 C.2   168  ASP168      0.3671
    105  OD1       77.0260  -10.8670   54.2520 O.co2 168  ASP168     -0.2456
    106  OD2       76.0590   -9.2580   53.0910 O.co2 168  ASP168     -0.2456
    107  N         72.5280  -15.1340   50.5930 N.3   170  LEU170     -0.1245
    108  CA        72.5210  -16.2480   49.6450 C.3   170  LEU170      0.1561
    109  C         71.7160  -16.0020   48.3620 C.2   170  LEU170      0.2260
    110  O         72.2230  -16.2370   47.2610 O.2   170  LEU170     -0.2867
    111  CB        72.0510  -17.5310   50.3500 C.3   170  LEU170      0.0270
    112  CG        71.9270  -18.7800   49.4920 C.3   170  LEU170      0.0019
    113  CD1       73.2930  -19.1610   48.8620 C.3   170  LEU170      0.0001
    114  CD2       71.4170  -19.8960   50.3850 C.3   170  LEU170      0.0001
@<TRIPOS>BOND
     1    53    54    1
     2    54    55    1
     3    54    57    1
     4    55    56    2
     5    57    58    1
     6    58    60   ar
     7    58    59   ar
     8    23    22    2
     9    26    25    1
    10    26    27    1
    11    24    25    1
    12    24    21    1
    13    22    21    1
    14    22    29   am
    15    21    20    1
    16    32    31    2
    17    38    37    2
    18   110   109    2
    19    27    28    1
    20    37    36    1
    21    30    31    1
    22    30    29    1
    23    30    33    1
    24    31    35   am
    25    19    18    2
    26    20    18   am
    27   109   108    1
    28    35    36    1
    29    33    34    1
    30    36    39    1
    31    18    17    1
    32   113   112    1
    33    91    92    1
    34   112   111    1
    35   112   114    1
    36    92    95    1
    37    92    93    1
    38   108   111    1
    39   108   107    1
    40    95    96    1
    41    39    41    1
    42    39    40    1
    43    97    96    2
    44    17    16    1
    45    96    98   am
    46    15    12    1
    47    16    13   am
    48    14    13    2
    49    99    93   am
    50    99   100    1
    51    13    12    1
    52    93    94    2
    53    12    11    1
    54   103   100    1
    55   103   104    1
    56     1     2    1
    57   100   101    1
    58    11     9   am
    59   101   102    2
    60     2     3    1
    61     2     5    1
    62   106   104   ar
    63   104   105   ar
    64     7     3   am
    65     7     8    1
    66     9    10    2
    67     9     8    1
    68    51    50    1
    69     3     4    2
    70     5     6    1
    71    70    69    1
    72    52    50    1
    73    50    49    2
    74    89    88    1
    75    42    43    1
    76    45    44    2
    77    49    48    1
    78    48    47    1
    79    69    71    1
    80    69    68    2
    81    88    90    1
    82    88    87    2
    83    47    46    1
    84    46    43    1
    85    44    43    1
    86    86    87    1
    87    86    85    1
    88    68    67    1
    89    67    66    1
    90    78    77    1
    91    85    84    1
    92    79    77    1
    93    66    65    1
    94    65    62    1
    95    77    76    1
    96    84    81    1
    97    76    73    1
    98    73    72    1
    99    73    74    1
   100    72    63   am
   101    63    64    2
   102    63    62    1
   103    62    61    1
   104    81    82    1
   105    81    80    1
   106    74    75    2
   107    83    82    2
