@<TRIPOS>MOLECULE
tmp/1lvgA01.pdb
 156 144 0 0 0
SMALL
GASTEIGER

@<TRIPOS>ATOM
      1  N         86.9850  -21.3910   45.9050 N.3     7  GLY7       -0.1225
      2  CA        86.7660  -20.5590   47.0770 C.3     7  GLY7        0.1811
      3  C         87.0990  -21.3720   48.3140 C.2     7  GLY7        0.2280
      4  O         87.2380  -22.6140   48.2230 O.2     7  GLY7       -0.2866
      5  N         86.8960  -23.3950   51.9820 N.3     9  SER9       -0.1217
      6  CA        85.9700  -24.3770   52.5460 C.3     9  SER9        0.1889
      7  C         84.9820  -23.5890   53.4160 C.2     9  SER9        0.2288
      8  O         85.3900  -22.7810   54.2640 O.2     9  SER9       -0.2866
      9  CB        86.7340  -25.3690   53.4250 C.3     9  SER9        0.2089
     10  OG        85.8450  -26.1770   54.1830 O.3     9  SER9       -0.2183
     11  N         79.8540  -22.9750   48.2670 N.3    13  LYS13      -0.1245
     12  CA        79.8280  -23.5800   46.9390 C.3    13  LYS13       0.1561
     13  C         78.7970  -24.6980   46.7980 C.2    13  LYS13       0.2260
     14  O         78.0120  -24.6840   45.8600 O.2    13  LYS13      -0.2867
     15  CB        81.2130  -24.1140   46.5530 C.3    13  LYS13       0.0271
     16  CG        82.3340  -23.0580   46.6460 C.3    13  LYS13       0.0035
     17  CD        83.7210  -23.6730   46.3390 C.3    13  LYS13       0.0206
     18  CE        84.1180  -24.7940   47.3030 C.3    13  LYS13       0.1093
     19  NZ        84.5600  -24.2920   48.6340 N.3    13  LYS13      -0.1314
     20  N         84.0670  -35.6020   41.6650 N.3    33  SER33      -0.1217
     21  CA        85.4680  -35.7890   42.0010 C.3    33  SER33       0.1889
     22  C         85.6920  -37.0300   42.8660 C.2    33  SER33       0.2288
     23  O         84.7620  -37.5610   43.4710 O.2    33  SER33      -0.2866
     24  CB        85.9730  -34.5700   42.7990 C.3    33  SER33       0.2089
     25  OG        86.1000  -33.4000   42.0090 O.3    33  SER33      -0.2183
     26  N         88.6780  -38.3940   51.7330 N.3    37  ARG37      -0.1245
     27  CA        88.0320  -38.0830   53.0010 C.3    37  ARG37       0.1563
     28  C         86.7680  -38.9050   53.1960 C.2    37  ARG37       0.2260
     29  O         86.2200  -39.4660   52.2480 O.2    37  ARG37      -0.2867
     30  CB        87.7180  -36.5850   53.1480 C.3    37  ARG37       0.0307
     31  CG        86.3940  -36.0940   52.5610 C.3    37  ARG37       0.0489
     32  CD        86.0110  -34.7650   53.2330 C.3    37  ARG37       0.2205
     33  NE        85.0340  -33.9710   52.4810 N.pl3  37  ARG37      -0.0865
     34  CZ        83.7740  -34.3310   52.2620 C.cat  37  ARG37       0.5346
     35  NH1       83.3190  -35.4840   52.7290 N.pl3  37  ARG37       0.1354
     36  NH2       82.9540  -33.5240   51.5980 N.pl3  37  ARG37       0.1354
     37  N         80.2890  -37.1610   54.7310 N.3    40  ARG40      -0.1245
     38  CA        79.6450  -36.4300   55.8040 C.3    40  ARG40       0.1563
     39  C         78.2200  -36.9440   55.7680 C.2    40  ARG40       0.2260
     40  O         77.7620  -37.4510   54.7370 O.2    40  ARG40      -0.2867
     41  CB        79.6100  -34.9360   55.5100 C.3    40  ARG40       0.0307
     42  CG        80.9640  -34.2980   55.4580 C.3    40  ARG40       0.0489
     43  CD        80.8790  -32.8900   54.9150 C.3    40  ARG40       0.2205
     44  NE        82.2150  -32.3390   54.8340 N.pl3  40  ARG40      -0.0865
     45  CZ        82.5650  -31.3180   54.0710 C.cat  40  ARG40       0.5346
     46  NH1       81.6590  -30.7060   53.3140 N.pl3  40  ARG40       0.1354
     47  NH2       83.8430  -30.9500   54.0310 N.pl3  40  ARG40       0.1354
     48  N         80.8380  -37.1970   45.7060 N.3    49  TYR49      -0.1241
     49  CA        82.2010  -37.6180   45.4240 C.3    49  TYR49       0.1605
     50  C         82.2060  -39.1050   45.2030 C.2    49  TYR49       0.2264
     51  O         81.2120  -39.7750   45.4660 O.2    49  TYR49      -0.2867
     52  CB        83.0830  -37.4310   46.6600 C.3    49  TYR49       0.0534
     53  CG        83.4930  -36.0330   46.9590 C.ar   49  TYR49      -0.0201
     54  CD1       84.5370  -35.4430   46.2630 C.ar   49  TYR49      -0.0009
     55  CD2       82.8480  -35.2980   47.9550 C.ar   49  TYR49      -0.0009
     56  CE1       84.9440  -34.1460   46.5500 C.ar   49  TYR49       0.0417
     57  CE2       83.2440  -33.9960   48.2520 C.ar   49  TYR49       0.0417
     58  CZ        84.2940  -33.4290   47.5470 C.ar   49  TYR49       0.1957
     59  OH        84.7100  -32.1490   47.8360 O.3    49  TYR49      -0.2866
     60  N         93.3690  -33.6570   37.0330 N.3    68  GLU68      -0.1245
     61  CA        94.1830  -32.9780   38.0470 C.3    68  GLU68       0.1567
     62  C         93.8830  -33.5800   39.4150 C.2    68  GLU68       0.2260
     63  O         92.8540  -34.2020   39.5940 O.2    68  GLU68      -0.2867
     64  CB        93.8990  -31.4620   38.0660 C.3    68  GLU68       0.0388
     65  CG        92.4600  -31.0410   38.4460 C.3    68  GLU68       0.1160
     66  CD        92.1330  -31.2680   39.9270 C.2    68  GLU68       0.3649
     67  OE1       92.9530  -30.8590   40.7860 O.co2  68  GLU68      -0.2457
     68  OE2       91.0490  -31.8320   40.2340 O.co2  68  GLU68      -0.2457
     69  N         94.9230  -32.9630   43.9140 N.3    70  ALA70      -0.1245
     70  CA        95.5350  -32.0760   44.8810 C.3    70  ALA70       0.1562
     71  C         95.2950  -32.5310   46.3050 C.2    70  ALA70       0.2260
     72  O         94.2510  -33.1000   46.6270 O.2    70  ALA70      -0.2867
     73  CB        94.9890  -30.6750   44.7120 C.3    70  ALA70       0.0290
     74  N         94.5130  -31.5460   50.0250 N.3    72  PHE72      -0.1241
     75  CA        93.8400  -30.4430   50.6900 C.3    72  PHE72       0.1605
     76  C         93.4060  -30.8490   52.0870 C.2    72  PHE72       0.2264
     77  O         92.6990  -31.8500   52.2840 O.2    72  PHE72      -0.2867
     78  CB        92.6080  -29.9880   49.8860 C.3    72  PHE72       0.0534
     79  CG        91.9220  -28.7770   50.4730 C.ar   72  PHE72      -0.0203
     80  CD1       92.3070  -27.4920   50.0960 C.ar   72  PHE72      -0.0042
     81  CD2       90.9460  -28.9240   51.4460 C.ar   72  PHE72      -0.0042
     82  CE1       91.7300  -26.3690   50.6790 C.ar   72  PHE72      -0.0003
     83  CE2       90.3540  -27.7980   52.0450 C.ar   72  PHE72      -0.0003
     84  CZ        90.7460  -26.5250   51.6590 C.ar   72  PHE72      -0.0000
     85  N         92.2180  -35.2130   46.6540 N.3    77  TYR77      -0.1227
     86  CA        91.0530  -34.9490   45.8200 C.3    77  TYR77       0.1736
     87  C         91.5140  -34.9170   44.3690 C.2    77  TYR77       0.2596
     88  O         92.6850  -34.6440   44.0900 O.2    77  TYR77      -0.2718
     89  CB        90.4510  -33.5700   46.1320 C.3    77  TYR77       0.0548
     90  CG        89.9480  -33.3660   47.5520 C.ar   77  TYR77      -0.0200
     91  CD1       90.8420  -33.1280   48.6110 C.ar   77  TYR77      -0.0009
     92  CD2       88.5760  -33.3640   47.8310 C.ar   77  TYR77      -0.0009
     93  CE1       90.3740  -32.8920   49.9100 C.ar   77  TYR77       0.0417
     94  CE2       88.1000  -33.1250   49.1170 C.ar   77  TYR77       0.0417
     95  CZ        89.0130  -32.8900   50.1550 C.ar   77  TYR77       0.1957
     96  OH        88.5590  -32.6580   51.4230 O.3    77  TYR77      -0.2866
     97  N         90.5930  -35.1580   43.4400 N.am   78  GLY78      -0.1942
     98  CA        90.9520  -35.1070   42.0360 C.3    78  GLY78       0.2014
     99  C         89.7740  -35.2150   41.0830 C.2    78  GLY78       0.2639
    100  O         88.7480  -35.8370   41.3850 O.2    78  GLY78      -0.2714
    101  N         89.9310  -34.6020   39.9170 N.am   79  THR79      -0.1950
    102  CA        88.9070  -34.6420   38.8770 C.3    79  THR79       0.1897
    103  C         89.3430  -35.7020   37.8830 C.2    79  THR79       0.2313
    104  O         90.3030  -35.4800   37.1540 O.2    79  THR79      -0.2863
    105  CB        88.8450  -33.3140   38.1330 C.3    79  THR79       0.1794
    106  OG1       88.4710  -32.2890   39.0510 O.3    79  THR79      -0.2208
    107  CG2       87.8340  -33.3820   36.9800 C.3    79  THR79       0.0378
    108  N         83.7700  -28.1950   41.2070 N.3    97  ASP97      -0.1225
    109  CA        83.9980  -27.5410   42.4990 C.3    97  ASP97       0.1805
    110  C         85.3970  -28.0130   42.9170 C.2    97  ASP97       0.2598
    111  O         85.5710  -29.1710   43.3010 O.2    97  ASP97      -0.2718
    112  CB        82.9220  -28.0070   43.5130 C.3    97  ASP97       0.1424
    113  CG        83.2570  -27.6400   44.9690 C.2    97  ASP97       0.3668
    114  OD1       82.4370  -27.9420   45.8490 O.co2  97  ASP97      -0.2456
    115  OD2       84.3250  -27.0560   45.2530 O.co2  97  ASP97      -0.2456
    116  N         86.3950  -27.1310   42.8430 N.am   98  VAL98      -0.1966
    117  CA        87.7750  -27.5020   43.2140 C.3    98  VAL98       0.1727
    118  C         88.5170  -26.3970   43.9850 C.2    98  VAL98       0.2616
    119  O         88.1010  -25.2420   43.9740 O.2    98  VAL98      -0.2715
    120  CB        88.6380  -27.7990   41.9610 C.3    98  VAL98       0.0290
    121  CG1       88.0550  -28.9360   41.1540 C.3    98  VAL98       0.0023
    122  CG2       88.7830  -26.5180   41.1170 C.3    98  VAL98       0.0023
    123  N         89.6460  -26.7420   44.6100 N.am   99  ASP99      -0.1971
    124  CA        90.4190  -25.7460   45.3470 C.3    99  ASP99       0.1709
    125  C         91.2800  -24.9470   44.3600 C.2    99  ASP99       0.2293
    126  O         91.1960  -25.1420   43.1350 O.2    99  ASP99      -0.2864
    127  CB        91.3210  -26.3930   46.4140 C.3    99  ASP99       0.1436
    128  CG        92.6480  -26.8980   45.8470 C.2    99  ASP99       0.3671
    129  OD1       92.6230  -27.5510   44.7780 O.co2  99  ASP99      -0.2456
    130  OD2       93.7190  -26.6400   46.4760 O.co2  99  ASP99      -0.2456
    131  N         93.5150  -26.8410   42.1720 N.3   102  GLY102     -0.1225
    132  CA        92.7360  -27.3710   41.0620 C.3   102  GLY102      0.1811
    133  C         92.5470  -26.3370   39.9550 C.2   102  GLY102      0.2280
    134  O         92.6440  -26.6400   38.7640 O.2   102  GLY102     -0.2866
    135  N         78.2930  -25.6680   60.5720 N.3   133  ARG133     -0.1245
    136  CA        77.9280  -26.8140   59.7360 C.3   133  ARG133      0.1563
    137  C         78.3220  -28.0620   60.5300 C.2   133  ARG133      0.2260
    138  O         77.7660  -29.1410   60.3460 O.2   133  ARG133     -0.2867
    139  CB        78.6680  -26.7440   58.3900 C.3   133  ARG133      0.0307
    140  CG        78.2280  -27.7930   57.3660 C.3   133  ARG133      0.0489
    141  CD        78.9910  -27.6000   56.0560 C.3   133  ARG133      0.2205
    142  NE        80.3850  -28.0240   56.1620 N.pl3 133  ARG133     -0.0865
    143  CZ        81.3210  -27.7520   55.2500 C.cat 133  ARG133      0.5346
    144  NH1       81.0250  -27.0370   54.1760 N.pl3 133  ARG133      0.1354
    145  NH2       82.5420  -28.2520   55.3770 N.pl3 133  ARG133      0.1354
    146  N         91.6250  -26.0390   57.2620 N.3   144  ARG144     -0.1245
    147  CA        90.7770  -25.3290   56.3160 C.3   144  ARG144      0.1563
    148  C         90.8350  -23.8250   56.4750 C.2   144  ARG144      0.2260
    149  O         90.8710  -23.0920   55.4750 O.2   144  ARG144     -0.2867
    150  CB        89.3430  -25.8300   56.4370 C.3   144  ARG144      0.0307
    151  CG        89.1900  -27.2260   55.8270 C.3   144  ARG144      0.0489
    152  CD        87.9800  -27.9360   56.3830 C.3   144  ARG144      0.2205
    153  NE        87.9100  -29.3020   55.8920 N.pl3 144  ARG144     -0.0865
    154  CZ        87.2720  -29.6470   54.7810 C.cat 144  ARG144      0.5346
    155  NH1       86.6460  -28.7210   54.0620 N.pl3 144  ARG144      0.1354
    156  NH2       87.2760  -30.9090   54.3820 N.pl3 144  ARG144      0.1354
@<TRIPOS>BOND
     1   107   105    1
     2    60    61    1
     3   104   103    2
     4   103   102    1
     5    61    64    1
     6    61    62    1
     7    64    65    1
     8   105   102    1
     9   105   106    1
    10    65    66    1
    11   134   133    2
    12   102   101    1
    13    62    63    2
    14   101    99   am
    15    66    68   ar
    16    66    67   ar
    17   133   132    1
    18   132   131    1
    19    99   100    2
    20    99    98    1
    21   122   120    1
    22   121   120    1
    23   108   109    1
    24    20    21    1
    25   120   117    1
    26    21    24    1
    27    21    22    1
    28    25    24    1
    29    98    97    1
    30   109   110    1
    31   109   112    1
    32   116   110   am
    33   116   117    1
    34    22    23    2
    35   110   111    2
    36   126   125    2
    37   117   118    1
    38    97    87   am
    39   112   113    1
    40    69    70    1
    41   119   118    2
    42   118   123   am
    43    88    87    2
    44   125   124    1
    45    87    86    1
    46   123   124    1
    47    73    70    1
    48   129   128   ar
    49    70    71    1
    50   113   115   ar
    51   113   114   ar
    52    50    49    1
    53    50    51    2
    54   124   127    1
    55    49    48    1
    56    49    52    1
    57    86    89    1
    58    86    85    1
    59   128   127    1
    60   128   130   ar
    61    14    13    2
    62     1     2    1
    63    89    90    1
    64    54    56   ar
    65    54    53   ar
    66    71    72    2
    67    17    16    1
    68    17    18    1
    69    56    58   ar
    70    15    16    1
    71    15    12    1
    72    52    53    1
    73    13    12    1
    74    12    11    1
    75    53    55   ar
    76     2     3    1
    77    18    19    1
    78    58    59    1
    79    58    57   ar
    80    90    92   ar
    81    90    91   ar
    82    92    94   ar
    83    55    57   ar
    84     4     3    2
    85    91    93   ar
    86    94    95   ar
    87    78    79    1
    88    78    75    1
    89    93    95   ar
    90    74    75    1
    91    80    79   ar
    92    80    82   ar
    93    95    96    1
    94    79    81   ar
    95    82    84   ar
    96    75    76    1
    97    81    83   ar
    98    36    34    1
    99    84    83   ar
   100    26    27    1
   101     5     6    1
   102    76    77    2
   103    29    28    2
   104    34    33    2
   105    34    35    1
   106    33    32    1
   107     6     7    1
   108     6     9    1
   109    31    30    1
   110    31    32    1
   111    27    30    1
   112    27    28    1
   113    46    45    1
   114     7     8    2
   115     9    10    1
   116    47    45    1
   117   155   154    1
   118    45    44    2
   119   144   143    1
   120   156   154    1
   121    37    38    1
   122    40    39    2
   123   154   153    2
   124    44    43    1
   125    43    42    1
   126   143   145    1
   127   143   142    2
   128    42    41    1
   129   149   148    2
   130    41    38    1
   131    39    38    1
   132   151   152    1
   133   151   150    1
   134   153   152    1
   135   141   142    1
   136   141   140    1
   137   147   150    1
   138   147   148    1
   139   147   146    1
   140   140   139    1
   141   139   136    1
   142   136   137    1
   143   136   135    1
   144   138   137    2
