@<TRIPOS>MOLECULE
tmp/1lvkA00.pdb
 200 196 0 0 0
SMALL
GASTEIGER

@<TRIPOS>ATOM
      1  N         43.1360   44.5680   14.9620 N.3   114  ILE114     -0.1231
      2  CA        42.0330   45.1000   15.7230 C.3   114  ILE114      0.1692
      3  C         40.6540   44.8740   15.1050 C.2   114  ILE114      0.2592
      4  O         39.6400   45.0030   15.7800 O.2   114  ILE114     -0.2718
      5  CB        42.1950   46.5660   16.0260 C.3   114  ILE114      0.0266
      6  CG1       42.2190   47.2510   14.7150 C.3   114  ILE114      0.0019
      7  CG2       43.5490   46.7800   16.6820 C.3   114  ILE114      0.0020
      8  CD1       42.0040   48.7720   14.8640 C.3   114  ILE114      0.0001
      9  N         40.6060   44.4680   13.8510 N.am  115  TYR115     -0.1976
     10  CA        39.3360   44.2020   13.1570 C.3   115  TYR115      0.1639
     11  C         39.1290   42.7250   12.9140 C.2   115  TYR115      0.2290
     12  O         40.0270   41.9990   12.4230 O.2   115  TYR115     -0.2864
     13  CB        39.2100   44.9470   11.7940 C.3   115  TYR115      0.0560
     14  CG        39.2920   46.4240   11.9400 C.ar  115  TYR115     -0.0198
     15  CD1       38.2030   47.1150   12.4580 C.ar  115  TYR115     -0.0009
     16  CD2       40.3890   47.1200   11.4210 C.ar  115  TYR115     -0.0009
     17  CE1       38.2540   48.5030   12.5140 C.ar  115  TYR115      0.0417
     18  CE2       40.4190   48.5240   11.3960 C.ar  115  TYR115      0.0417
     19  CZ        39.3640   49.2020   12.0100 C.ar  115  TYR115      0.1957
     20  OH        39.3570   50.5400   12.0370 O.3   115  TYR115     -0.2866
     21  N         39.6170   48.7830   20.1900 N.3   126  ASN126     -0.1226
     22  CA        40.4870   49.9340   20.2450 C.3   126  ASN126      0.1770
     23  C         41.8780   49.4980   20.6050 C.2   126  ASN126      0.2439
     24  O         42.0290   48.7690   21.5870 O.2   126  ASN126     -0.2733
     25  CB        40.0420   50.8970   21.3380 C.3   126  ASN126      0.1168
     26  CG        40.6310   52.2280   21.2030 C.2   126  ASN126      0.2627
     27  OD1       41.7290   52.4310   20.6280 O.2   126  ASN126     -0.2716
     28  ND2       39.8380   53.1620   21.8040 N.am  126  ASN126     -0.0877
     29  N         42.8350   49.9250   19.7910 N.am  127  PRO127     -0.2718
     30  CA        44.2240   49.5710   20.0440 C.3   127  PRO127      0.1535
     31  C         44.8460   50.4980   21.0850 C.2   127  PRO127      0.2599
     32  O         45.8360   50.1410   21.7240 O.2   127  PRO127     -0.2715
     33  CB        45.0290   49.8320   18.7380 C.3   127  PRO127      0.0310
     34  CG        44.1860   50.8120   17.9770 C.3   127  PRO127      0.0237
     35  CD        42.7310   50.4950   18.4030 C.3   127  PRO127      0.0939
     36  N         44.2990   51.6940   21.2510 N.am  128  PHE128     -0.1960
     37  CA        44.9150   52.6020   22.2050 C.3   128  PHE128      0.1771
     38  C         46.3770   52.8630   21.8710 C.2   128  PHE128      0.2619
     39  O         47.1700   53.1100   22.7520 O.2   128  PHE128     -0.2715
     40  CB        44.8200   52.2210   23.6950 C.3   128  PHE128      0.0574
     41  CG        43.4490   52.5370   24.1820 C.ar  128  PHE128     -0.0200
     42  CD1       42.9610   53.8110   23.9950 C.ar  128  PHE128     -0.0042
     43  CD2       42.7390   51.5630   24.8790 C.ar  128  PHE128     -0.0042
     44  CE1       41.6620   54.0780   24.4400 C.ar  128  PHE128     -0.0003
     45  CE2       41.4680   51.8380   25.3720 C.ar  128  PHE128     -0.0003
     46  CZ        40.9340   53.0940   25.1130 C.ar  128  PHE128     -0.0000
     47  N         46.6910   52.8080   20.5950 N.am  129  LYS129     -0.1963
     48  CA        47.9780   53.1520   20.0410 C.3   129  LYS129      0.1728
     49  C         47.8220   53.3020   18.5350 C.2   129  LYS129      0.2616
     50  O         46.8780   52.8270   17.9540 O.2   129  LYS129     -0.2715
     51  CB        49.0600   52.1870   20.3330 C.3   129  LYS129      0.0311
     52  CG        48.8610   50.9300   19.5410 C.3   129  LYS129      0.0038
     53  CD        50.0380   50.0760   19.7400 C.3   129  LYS129      0.0206
     54  CE        50.2390   49.1040   18.6270 C.3   129  LYS129      0.1093
     55  NZ        51.5260   48.3710   18.7970 N.3   129  LYS129     -0.1314
     56  N         48.7390   53.9790   17.8880 N.am  130  ARG130     -0.1963
     57  CA        48.6130   54.1500   16.4470 C.3   130  ARG130      0.1729
     58  C         49.0730   52.9370   15.6660 C.2   130  ARG130      0.2616
     59  O         50.0760   52.2950   16.0070 O.2   130  ARG130     -0.2715
     60  CB        49.1110   55.4690   15.8660 C.3   130  ARG130      0.0348
     61  CG        48.3780   56.6120   16.6020 C.3   130  ARG130      0.0492
     62  CD        47.8710   57.7360   15.7070 C.3   130  ARG130      0.2205
     63  NE        46.4520   58.0930   16.0120 N.pl3 130  ARG130     -0.0865
     64  CZ        45.2680   57.5660   15.4670 C.cat 130  ARG130      0.5346
     65  NH1       45.3150   56.6400   14.4920 N.pl3 130  ARG130      0.1354
     66  NH2       44.0180   57.9990   15.8070 N.pl3 130  ARG130      0.1354
     67  N         48.2360   52.6130   14.6780 N.am  131  ILE131     -0.1977
     68  CA        48.3890   51.5260   13.6920 C.3   131  ILE131      0.1596
     69  C         48.1850   52.2000   12.3450 C.2   131  ILE131      0.2287
     70  O         47.1020   52.7520   12.0710 O.2   131  ILE131     -0.2864
     71  CB        47.3700   50.3850   13.8570 C.3   131  ILE131      0.0276
     72  CG1       47.6090   49.7620   15.2450 C.3   131  ILE131      0.0022
     73  CG2       47.6710   49.3360   12.7740 C.3   131  ILE131      0.0022
     74  CD1       46.6620   48.5860   15.4850 C.3   131  ILE131      0.0001
     75  N         45.4440   53.5010    7.9900 N.3   134  TYR134     -0.1241
     76  CA        44.4240   54.3530    7.4240 C.3   134  TYR134      0.1605
     77  C         44.9800   55.3330    6.4150 C.2   134  TYR134      0.2264
     78  O         44.4710   56.4200    6.2910 O.2   134  TYR134     -0.2867
     79  CB        43.8940   55.1690    8.6260 C.3   134  TYR134      0.0534
     80  CG        43.3420   54.2290    9.7040 C.ar  134  TYR134     -0.0201
     81  CD1       42.2240   53.4030    9.4390 C.ar  134  TYR134     -0.0009
     82  CD2       43.9170   54.1780   10.9780 C.ar  134  TYR134     -0.0009
     83  CE1       41.7080   52.5620   10.4110 C.ar  134  TYR134      0.0417
     84  CE2       43.3690   53.3610   11.9610 C.ar  134  TYR134      0.0417
     85  CZ        42.2940   52.5190   11.6730 C.ar  134  TYR134      0.1957
     86  OH        41.7400   51.7430   12.6470 O.3   134  TYR134     -0.2866
     87  N         31.8230   54.3220   25.5390 N.3   180  SER180     -0.1202
     88  CA        32.5950   55.5130   25.4340 C.3   180  SER180      0.2020
     89  C         34.0370   55.0960   25.3980 C.2   180  SER180      0.2619
     90  O         34.4900   54.2850   26.2340 O.2   180  SER180     -0.2717
     91  CB        32.2300   56.4160   26.6440 C.3   180  SER180      0.2103
     92  OG        33.1280   57.5860   26.6100 O.3   180  SER180     -0.2182
     93  N         34.7630   55.6550   24.4630 N.am  181  GLY181     -0.1942
     94  CA        36.1710   55.2760   24.3740 C.3   181  GLY181      0.2014
     95  C         36.4540   54.0430   23.5290 C.2   181  GLY181      0.2639
     96  O         37.6050   53.7340   23.3800 O.2   181  GLY181     -0.2714
     97  N         35.4170   53.3450   22.9890 N.am  182  ALA182     -0.1963
     98  CA        35.5120   52.1330   22.1560 C.3   182  ALA182      0.1728
     99  C         36.1220   52.3640   20.7740 C.2   182  ALA182      0.2617
    100  O         36.6810   51.4520   20.2300 O.2   182  ALA182     -0.2715
    101  CB        34.1980   51.2940   22.0670 C.3   182  ALA182      0.0334
    102  N         36.0110   53.5440   20.2170 N.am  183  GLY183     -0.1940
    103  CA        36.5710   53.8990   18.8980 C.3   183  GLY183      0.2014
    104  C         35.5270   54.2340   17.8520 C.2   183  GLY183      0.2639
    105  O         35.8500   54.2390   16.6840 O.2   183  GLY183     -0.2714
    106  N         34.2500   54.4540   18.2300 N.am  184  LYS184     -0.1963
    107  CA        33.1570   54.8020   17.3060 C.3   184  LYS184      0.1728
    108  C         33.4020   55.9990   16.3530 C.2   184  LYS184      0.2617
    109  O         33.2220   55.9080   15.1470 O.2   184  LYS184     -0.2715
    110  CB        31.8040   55.0360   18.0470 C.3   184  LYS184      0.0311
    111  CG        31.3330   53.8570   18.8390 C.3   184  LYS184      0.0038
    112  CD        30.0200   54.1670   19.6180 C.3   184  LYS184      0.0206
    113  CE        30.0830   55.3090   20.6660 C.3   184  LYS184      0.1093
    114  NZ        31.0360   54.8710   21.7820 N.3   184  LYS184     -0.1314
    115  N         33.7720   57.1250   16.9280 N.am  185  THR185     -0.1937
    116  CA        34.0200   58.3480   16.2570 C.3   185  THR185      0.2028
    117  C         35.2080   58.1910   15.3280 C.2   185  THR185      0.2642
    118  O         35.1850   58.6250   14.1730 O.2   185  THR185     -0.2714
    119  CB        34.1930   59.5210   17.2420 C.3   185  THR185      0.1808
    120  OG1       32.9690   59.6730   18.0090 O.3   185  THR185     -0.2208
    121  CG2       34.6030   60.7990   16.5590 C.3   185  THR185      0.0379
    122  N         36.2830   57.6030   15.8190 N.am  186  GLU186     -0.1963
    123  CA        37.4270   57.3950   14.9530 C.3   186  GLU186      0.1733
    124  C         37.0490   56.5680   13.7160 C.2   186  GLU186      0.2616
    125  O         37.3920   56.8540   12.5970 O.2   186  GLU186     -0.2715
    126  CB        38.5220   56.6780   15.7610 C.3   186  GLU186      0.0429
    127  CG        39.3700   57.6620   16.6460 C.3   186  GLU186      0.1163
    128  CD        39.7270   59.0190   16.1110 C.2   186  GLU186      0.3649
    129  OE1       40.2700   59.0470   14.9050 O.co2 186  GLU186     -0.2457
    130  OE2       39.5540   60.0410   16.7310 O.co2 186  GLU186     -0.2457
    131  N         36.3350   55.4790   13.9430 N.am  187  ASN187     -0.1972
    132  CA        35.8570   54.6350   12.8930 C.3   187  ASN187      0.1688
    133  C         34.8780   55.3580   12.0090 C.2   187  ASN187      0.2292
    134  O         34.9030   55.1510   10.8050 O.2   187  ASN187     -0.2864
    135  CB        35.3390   53.3000   13.3880 C.3   187  ASN187      0.1181
    136  CG        36.4890   52.3490   13.6790 C.2   187  ASN187      0.2629
    137  OD1       37.0160   51.6960   12.8050 O.2   187  ASN187     -0.2716
    138  ND2       36.8270   52.2430   14.9320 N.am  187  ASN187     -0.0877
    139  N         34.9380   58.5370   11.3380 N.3   189  LYS189     -0.1245
    140  CA        35.7400   59.4250   10.5330 C.3   189  LYS189      0.1561
    141  C         36.4150   58.7080    9.3730 C.2   189  LYS189      0.2260
    142  O         36.5600   59.2450    8.3070 O.2   189  LYS189     -0.2867
    143  CB        36.7120   60.1640   11.4310 C.3   189  LYS189      0.0271
    144  CG        36.2060   61.2250   12.4570 C.3   189  LYS189      0.0035
    145  CD        37.3820   61.4710   13.4390 C.3   189  LYS189      0.0206
    146  CE        37.3520   62.6350   14.4440 C.3   189  LYS189      0.1093
    147  NZ        38.1960   62.4580   15.6710 N.3   189  LYS189     -0.1314
    148  N         37.2920   59.0020   28.0830 N.3   229  ASN229     -0.1225
    149  CA        37.8380   59.3510   26.7800 C.3   229  ASN229      0.1785
    150  C         38.1850   60.8020   26.7740 C.2   229  ASN229      0.2597
    151  O         37.3730   61.6180   27.1490 O.2   229  ASN229     -0.2718
    152  CB        36.6820   59.0200   25.7020 C.3   229  ASN229      0.1169
    153  CG        37.0020   59.2900   24.2710 C.2   229  ASN229      0.2627
    154  OD1       38.0830   59.8720   23.9720 O.2   229  ASN229     -0.2716
    155  ND2       36.0260   58.9400   23.4480 N.am  229  ASN229     -0.0877
    156  N         39.3820   61.1270   26.3010 N.am  230  ASN230     -0.1960
    157  CA        39.8080   62.4930   26.1840 C.3   230  ASN230      0.1819
    158  C         39.0520   63.2790   25.1430 C.2   230  ASN230      0.2621
    159  O         39.1060   64.5110   25.1410 O.2   230  ASN230     -0.2715
    160  CB        41.2890   62.5680   25.7480 C.3   230  ASN230      0.1195
    161  CG        42.1430   62.0800   26.9050 C.2   230  ASN230      0.2630
    162  OD1       43.2180   61.6120   26.7280 O.2   230  ASN230     -0.2716
    163  ND2       41.6870   62.1290   28.1310 N.am  230  ASN230     -0.0877
    164  N         38.4070   62.5690   24.2280 N.am  231  ASN231     -0.1958
    165  CA        37.6950   63.2770   23.2090 C.3   231  ASN231      0.1819
    166  C         36.3270   62.7030   23.0750 C.2   231  ASN231      0.2622
    167  O         35.9130   62.3680   21.9890 O.2   231  ASN231     -0.2715
    168  CB        38.4300   63.2160   21.8960 C.3   231  ASN231      0.1195
    169  CG        37.6620   63.9500   20.7880 C.2   231  ASN231      0.2630
    170  OD1       37.2320   65.0790   20.9500 O.2   231  ASN231     -0.2716
    171  ND2       37.5080   63.3180   19.6530 N.am  231  ASN231     -0.0877
    172  N         35.6270   62.5860   24.1970 N.am  232  SER232     -0.1936
    173  CA        34.2910   61.9800   24.2320 C.3   232  SER232      0.2055
    174  C         33.2260   62.7790   23.4740 C.2   232  SER232      0.2643
    175  O         33.1500   63.9740   23.6420 O.2   232  SER232     -0.2714
    176  CB        33.8360   61.8540   25.6670 C.3   232  SER232      0.2130
    177  OG        32.6840   61.0300   25.7770 O.3   232  SER232     -0.2179
    178  N         32.4080   62.0950   22.6430 N.am  233  SER233     -0.1949
    179  CA        31.3230   62.7310   21.9220 C.3   233  SER233      0.1924
    180  C         30.1930   62.8500   22.9200 C.2   233  SER233      0.2314
    181  O         29.8070   61.8470   23.4470 O.2   233  SER233     -0.2863
    182  CB        30.8020   61.6770   20.9200 C.3   233  SER233      0.2116
    183  OG        31.8370   61.2780   19.9250 O.3   233  SER233     -0.2180
    184  N         26.7440   57.1530   14.6700 N.3   450  ASP450     -0.1239
    185  CA        27.7780   57.0450   15.6840 C.3   450  ASP450      0.1674
    186  C         27.1530   57.4230   16.9960 C.2   450  ASP450      0.2266
    187  O         26.9110   58.6070   17.2670 O.2   450  ASP450     -0.2867
    188  CB        28.9030   58.0220   15.2850 C.3   450  ASP450      0.1410
    189  CG        29.9520   58.2530   16.3650 C.2   450  ASP450      0.3668
    190  OD1       29.9550   57.4050   17.3440 O.co2 450  ASP450     -0.2456
    191  OD2       30.7810   59.1240   16.2840 O.co2 450  ASP450     -0.2456
    192  N         42.4750   52.9590   29.2080 N.3   646  GLN646     -0.1245
    193  CA        43.0530   53.6670   28.0710 C.3   646  GLN646      0.1566
    194  C         44.4780   53.2440   27.6930 C.2   646  GLN646      0.2260
    195  O         45.2390   54.0430   27.1100 O.2   646  GLN646     -0.2867
    196  CB        43.0210   55.2180   28.0870 C.3   646  GLN646      0.0367
    197  CG        41.5660   55.7450   28.2590 C.3   646  GLN646      0.0905
    198  CD        41.3620   57.2120   28.5810 C.2   646  GLN646      0.2608
    199  OE1       40.6770   57.5430   29.5430 O.2   646  GLN646     -0.2717
    200  NE2       41.8860   58.1010   27.7690 N.am  646  GLN646     -0.0878
@<TRIPOS>BOND
     1    78    77    2
     2    77    76    1
     3    76    75    1
     4    76    79    1
     5   142   141    2
     6    79    80    1
     7   141   140    1
     8    81    80   ar
     9    81    83   ar
    10    80    82   ar
    11    83    85   ar
    12   140   139    1
    13   140   143    1
    14   134   133    2
    15    82    84   ar
    16    18    16   ar
    17    18    19   ar
    18    16    14   ar
    19   143   144    1
    20    85    84   ar
    21    85    86    1
    22    13    14    1
    23    13    10    1
    24    14    15   ar
    25   133   132    1
    26    19    20    1
    27    19    17   ar
    28    70    69    2
    29    69    68    1
    30    12    11    2
    31   144   145    1
    32    15    17   ar
    33   125   124    2
    34    73    71    1
    35   137   136    2
    36   132   135    1
    37   132   131    1
    38    11    10    1
    39    10     9    1
    40   135   136    1
    41   145   146    1
    42   136   138   am
    43    68    71    1
    44    68    67    1
    45   124   131   am
    46   124   123    1
    47     9     3   am
    48    71    72    1
    49   118   117    2
    50   146   147    1
    51    65    64    1
    52   184   185    1
    53    67    58   am
    54     6     8    1
    55     6     5    1
    56   129   128   ar
    57   123   126    1
    58   123   122    1
    59     1     2    1
    60     3     2    1
    61     3     4    2
    62   109   108    2
    63    72    74    1
    64   188   185    1
    65   188   189    1
    66   117   122   am
    67   117   116    1
    68    64    66    1
    69    64    63    2
    70    58    59    2
    71    58    57    1
    72   185   186    1
    73    62    63    1
    74    62    61    1
    75     2     5    1
    76   126   127    1
    77    60    57    1
    78    60    61    1
    79     5     7    1
    80   128   127    1
    81   128   130   ar
    82   116   115    1
    83   116   119    1
    84   191   189   ar
    85   108   115   am
    86   108   107    1
    87   189   190   ar
    88    57    56    1
    89   121   119    1
    90   105   104    2
    91   186   187    2
    92   119   120    1
    93   107   110    1
    94   107   106    1
    95   104   106   am
    96   104   103    1
    97    56    49   am
    98    50    49    2
    99    34    35    1
   100    34    33    1
   101   110   111    1
   102    35    29    1
   103    49    48    1
   104    54    55    1
   105    54    53    1
   106    33    30    1
   107   111   112    1
   108   103   102    1
   109    52    53    1
   110    52    51    1
   111   112   113    1
   112   171   169   am
   113    29    30    1
   114    29    23   am
   115   183   182    1
   116    48    51    1
   117    48    47    1
   118    30    31    1
   119    21    22    1
   120   102    99   am
   121   100    99    2
   122    22    23    1
   123    22    25    1
   124    47    38   am
   125    23    24    2
   126    27    26    2
   127   113   114    1
   128    99    98    1
   129   169   170    2
   130   169   168    1
   131   182   179    1
   132    31    36   am
   133    31    32    2
   134    26    25    1
   135    26    28   am
   136    36    37    1
   137    38    37    1
   138    38    39    2
   139   168   165    1
   140   179   178    1
   141   179   180    1
   142   167   166    2
   143   101    98    1
   144    98    97    1
   145    37    40    1
   146   178   174   am
   147   180   181    2
   148    97    95   am
   149   166   165    1
   150   166   172   am
   151   165   164    1
   152    96    95    2
   153   155   153   am
   154   174   175    2
   155   174   173    1
   156    95    94    1
   157    40    41    1
   158   154   153    2
   159    42    41   ar
   160    42    44   ar
   161    41    43   ar
   162   172   173    1
   163   164   158   am
   164   173   176    1
   165   153   152    1
   166    94    93    1
   167    44    46   ar
   168    93    89   am
   169    43    45   ar
   170    46    45   ar
   171   159   158    2
   172   158   157    1
   173    89    88    1
   174    89    90    2
   175    88    87    1
   176    88    91    1
   177   176   177    1
   178   152   149    1
   179   160   157    1
   180   160   161    1
   181   157   156    1
   182   156   150   am
   183    92    91    1
   184   162   161    2
   185   150   149    1
   186   150   151    2
   187   149   148    1
   188   161   163   am
   189   195   194    2
   190   194   193    1
   191   200   198   am
   192   193   196    1
   193   193   192    1
   194   196   197    1
   195   197   198    1
   196   198   199    2
