@<TRIPOS>MOLECULE
tmp/1lvlA01.pdb
 194 190 0 0 0
SMALL
GASTEIGER

@<TRIPOS>ATOM
      1  N          4.6160  -46.6340  -40.6260 N.3   149  LEU149     -0.1245
      2  CA         4.7560  -47.6600  -39.5910 C.3   149  LEU149      0.1561
      3  C          5.3160  -46.9860  -38.3200 C.2   149  LEU149      0.2260
      4  O          6.3370  -46.2930  -38.4180 O.2   149  LEU149     -0.2867
      5  CB         5.7310  -48.8060  -40.0550 C.3   149  LEU149      0.0270
      6  CG         5.3670  -49.8530  -41.1710 C.3   149  LEU149      0.0019
      7  CD1        6.5810  -50.7220  -41.5130 C.3   149  LEU149      0.0001
      8  CD2        4.2240  -50.7490  -40.7020 C.3   149  LEU149      0.0001
      9  N          8.1120  -53.7790  -47.7230 N.3   177  VAL177     -0.1231
     10  CA         7.1870  -54.1170  -46.6780 C.3   177  VAL177      0.1692
     11  C          5.8300  -53.8960  -47.3480 C.2   177  VAL177      0.2593
     12  O          5.4010  -52.7630  -47.5270 O.2   177  VAL177     -0.2718
     13  CB         7.4880  -53.1620  -45.4650 C.3   177  VAL177      0.0266
     14  CG1        6.6110  -53.5310  -44.2830 C.3   177  VAL177      0.0020
     15  CG2        8.9760  -53.2380  -45.0710 C.3   177  VAL177      0.0020
     16  N          5.1400  -54.9370  -47.7540 N.am  178  GLY178     -0.1942
     17  CA         3.8340  -54.7990  -48.3790 C.3   178  GLY178      0.2014
     18  C          3.9050  -55.3560  -49.8130 C.2   178  GLY178      0.2639
     19  O          4.7630  -55.0400  -50.6520 O.2   178  GLY178     -0.2714
     20  N          2.9920  -56.2650  -50.0760 N.am  179  GLY179     -0.1939
     21  CA         2.9720  -56.9730  -51.3430 C.3   179  GLY179      0.2014
     22  C          1.6000  -56.8430  -51.9850 C.2   179  GLY179      0.2639
     23  O          0.8860  -57.8400  -52.1670 O.2   179  GLY179     -0.2714
     24  N          1.2480  -55.5580  -52.1970 N.am  180  GLY180     -0.1939
     25  CA         0.0480  -55.0770  -52.8990 C.3   180  GLY180      0.2014
     26  C          0.5460  -54.4410  -54.2070 C.2   180  GLY180      0.2639
     27  O          1.7910  -54.5100  -54.4120 O.2   180  GLY180     -0.2714
     28  N         -0.2680  -53.7360  -55.0560 N.am  181  TYR181     -0.1959
     29  CA         0.2730  -53.2700  -56.3550 C.3   181  TYR181      0.1771
     30  C          1.3860  -52.3230  -56.3560 C.2   181  TYR181      0.2619
     31  O          2.2650  -52.5090  -57.1930 O.2   181  TYR181     -0.2715
     32  CB        -0.7330  -52.6450  -57.3130 C.3   181  TYR181      0.0574
     33  CG        -1.4290  -51.3270  -57.0840 C.ar  181  TYR181     -0.0198
     34  CD1       -2.5700  -51.3130  -56.3190 C.ar  181  TYR181     -0.0009
     35  CD2       -0.9760  -50.1720  -57.6950 C.ar  181  TYR181     -0.0009
     36  CE1       -3.2710  -50.1380  -56.1650 C.ar  181  TYR181      0.0417
     37  CE2       -1.6840  -48.9930  -57.5430 C.ar  181  TYR181      0.0417
     38  CZ        -2.8260  -48.9840  -56.7750 C.ar  181  TYR181      0.1957
     39  OH        -3.5400  -47.8180  -56.5660 O.3   181  TYR181     -0.2866
     40  N          1.3740  -51.3790  -55.3970 N.am  182  ILE182     -0.1977
     41  CA         2.4760  -50.4300  -55.1990 C.3   182  ILE182      0.1596
     42  C          3.7500  -51.1990  -54.8500 C.2   182  ILE182      0.2287
     43  O          4.7810  -50.9660  -55.4770 O.2   182  ILE182     -0.2864
     44  CB         2.1520  -49.3740  -54.0240 C.3   182  ILE182      0.0276
     45  CG1        1.2550  -48.2490  -54.4250 C.3   182  ILE182      0.0022
     46  CG2        3.4700  -48.6850  -53.6080 C.3   182  ILE182      0.0022
     47  CD1       -0.1980  -48.5680  -54.5040 C.3   182  ILE182      0.0001
     48  N          8.2590  -58.5160  -48.2190 N.3   200  VAL200     -0.1231
     49  CA         7.9070  -59.1420  -46.9670 C.3   200  VAL200      0.1692
     50  C          6.4360  -58.8140  -46.8890 C.2   200  VAL200      0.2592
     51  O          6.0210  -57.6640  -47.1120 O.2   200  VAL200     -0.2718
     52  CB         8.7020  -58.5250  -45.7810 C.3   200  VAL200      0.0266
     53  CG1        8.4270  -59.3280  -44.5200 C.3   200  VAL200      0.0020
     54  CG2       10.2070  -58.5510  -46.0570 C.3   200  VAL200      0.0020
     55  N          5.6030  -59.7940  -46.6070 N.am  201  GLU201     -0.1966
     56  CA         4.2030  -59.5450  -46.5490 C.3   201  GLU201      0.1733
     57  C          3.6100  -60.4310  -45.4750 C.2   201  GLU201      0.2616
     58  O          3.7840  -61.6420  -45.4480 O.2   201  GLU201     -0.2715
     59  CB         3.6950  -59.8570  -47.8950 C.3   201  GLU201      0.0429
     60  CG         2.2250  -60.1980  -47.9730 C.3   201  GLU201      0.1163
     61  CD         1.2470  -59.0720  -47.7700 C.2   201  GLU201      0.3649
     62  OE1        1.5380  -57.9540  -48.2050 O.co2 201  GLU201     -0.2457
     63  OE2        0.1860  -59.3580  -47.2120 O.co2 201  GLU201     -0.2457
     64  N          2.7610  -59.7910  -44.6960 N.am  202  ALA202     -0.1963
     65  CA         2.0700  -60.3540  -43.5550 C.3   202  ALA202      0.1728
     66  C          0.9500  -61.3310  -43.7950 C.2   202  ALA202      0.2616
     67  O          0.2860  -61.7590  -42.8510 O.2   202  ALA202     -0.2715
     68  CB         1.5070  -59.2100  -42.7330 C.3   202  ALA202      0.0334
     69  N          0.6310  -61.6930  -45.0270 N.am  203  ARG203     -0.1977
     70  CA        -0.4620  -62.6480  -45.1940 C.3   203  ARG203      0.1597
     71  C          0.0830  -63.8710  -45.8840 C.2   203  ARG203      0.2287
     72  O          1.3130  -63.9580  -46.0760 O.2   203  ARG203     -0.2864
     73  CB        -1.5810  -62.0530  -46.0180 C.3   203  ARG203      0.0334
     74  CG        -2.2670  -60.9550  -45.2710 C.3   203  ARG203      0.0492
     75  CD        -3.7610  -61.1120  -45.3820 C.3   203  ARG203      0.2205
     76  NE        -4.3070  -59.7640  -45.4060 N.pl3 203  ARG203     -0.0865
     77  CZ        -5.6170  -59.4980  -45.4740 C.cat 203  ARG203      0.5346
     78  NH1       -6.5400  -60.4710  -45.5190 N.pl3 203  ARG203      0.1354
     79  NH2       -6.0020  -58.2160  -45.4960 N.pl3 203  ARG203      0.1354
     80  N         -3.0280  -60.5010  -51.5410 N.3   208  PRO208     -0.2102
     81  CA        -3.9900  -61.2420  -50.7340 C.3   208  PRO208      0.1504
     82  C         -5.4590  -60.9470  -50.9150 C.2   208  PRO208      0.2576
     83  O         -6.3120  -61.6200  -50.3520 O.2   208  PRO208     -0.2718
     84  CB        -3.5400  -60.9840  -49.3470 C.3   208  PRO208      0.0282
     85  CG        -2.9790  -59.5870  -49.4320 C.3   208  PRO208      0.0208
     86  CD        -2.1620  -59.6890  -50.6760 C.3   208  PRO208      0.0893
     87  N         -5.7920  -59.9080  -51.6660 N.am  209  THR209     -0.1953
     88  CA        -7.1660  -59.5380  -52.0090 C.3   209  THR209      0.1897
     89  C         -7.7450  -60.4670  -53.0850 C.2   209  THR209      0.2313
     90  O         -8.9530  -60.6920  -53.2130 O.2   209  THR209     -0.2863
     91  CB        -7.1520  -58.0470  -52.4940 C.3   209  THR209      0.1794
     92  OG1       -5.8000  -57.5320  -52.6030 O.3   209  THR209     -0.2208
     93  CG2       -7.9520  -57.2160  -51.5250 C.3   209  THR209      0.0378
     94  N          5.4750  -63.0750  -42.6500 N.3   233  HIS233     -0.1226
     95  CA         6.2440  -62.2170  -41.7930 C.3   233  HIS233      0.1752
     96  C          5.6810  -60.7940  -41.6790 C.2   233  HIS233      0.2597
     97  O          5.1590  -60.2210  -42.6380 O.2   233  HIS233     -0.2718
     98  CB         7.6460  -62.1810  -42.3370 C.3   233  HIS233      0.0759
     99  CG         8.4100  -63.5050  -42.1730 C.ar  233  HIS233      0.0818
    100  ND1        7.9450  -64.6890  -42.5700 N.ar  233  HIS233     -0.2268
    101  CD2        9.6700  -63.5950  -41.6630 C.ar  233  HIS233      0.1154
    102  CE1        8.9300  -65.5260  -42.3140 C.ar  233  HIS233      0.1986
    103  NE2        9.9450  -64.8670  -41.7760 N.ar  233  HIS233     -0.2212
    104  N          5.7520  -60.1630  -40.4980 N.am  234  SER234     -0.1938
    105  CA         5.3790  -58.7620  -40.2900 C.3   234  SER234      0.2055
    106  C          6.6610  -58.0020  -39.9190 C.2   234  SER234      0.2642
    107  O          7.5710  -58.5890  -39.3040 O.2   234  SER234     -0.2714
    108  CB         4.3530  -58.6700  -39.1650 C.3   234  SER234      0.2130
    109  OG         3.2100  -59.4620  -39.4860 O.3   234  SER234     -0.2179
    110  N          6.8220  -56.7290  -40.3020 N.am  235  VAL235     -0.1977
    111  CA         8.0480  -55.9860  -39.9880 C.3   235  VAL235      0.1596
    112  C          7.9770  -55.2310  -38.6580 C.2   235  VAL235      0.2287
    113  O          7.0000  -54.4960  -38.4200 O.2   235  VAL235     -0.2864
    114  CB         8.3320  -55.0230  -41.1590 C.3   235  VAL235      0.0276
    115  CG1        9.5100  -54.0780  -40.9160 C.3   235  VAL235      0.0022
    116  CG2        8.6800  -55.9000  -42.3470 C.3   235  VAL235      0.0022
    117  N          5.1340  -50.0900  -48.0030 N.3   263  ALA263     -0.1231
    118  CA         4.0860  -49.8970  -48.9420 C.3   263  ALA263      0.1694
    119  C          2.9530  -50.6650  -48.3880 C.2   263  ALA263      0.2592
    120  O          2.2660  -51.4600  -49.0310 O.2   263  ALA263     -0.2718
    121  CB         4.5380  -50.4200  -50.2700 C.3   263  ALA263      0.0304
    122  N          2.6960  -50.2300  -47.1500 N.am  264  VAL264     -0.1966
    123  CA         1.7190  -50.9030  -46.3170 C.3   264  VAL264      0.1727
    124  C          0.3020  -50.3570  -46.3440 C.2   264  VAL264      0.2617
    125  O         -0.5380  -50.8000  -45.5230 O.2   264  VAL264     -0.2715
    126  CB         2.2520  -50.9780  -44.8410 C.3   264  VAL264      0.0290
    127  CG1        3.6400  -51.5820  -44.8230 C.3   264  VAL264      0.0023
    128  CG2        2.3600  -49.6180  -44.2110 C.3   264  VAL264      0.0023
    129  N         -0.0440  -49.4640  -47.2960 N.am  265  GLY265     -0.1940
    130  CA        -1.4560  -49.0490  -47.4320 C.3   265  GLY265      0.2014
    131  C         -1.7130  -47.5530  -47.6440 C.2   265  GLY265      0.2638
    132  O         -0.7720  -46.7320  -47.6060 O.2   265  GLY265     -0.2714
    133  N         -2.9640  -47.1090  -47.8460 N.am  266  ARG266     -0.1977
    134  CA        -3.2030  -45.6940  -48.0530 C.3   266  ARG266      0.1597
    135  C         -4.3800  -45.2170  -47.2670 C.2   266  ARG266      0.2287
    136  O         -5.4220  -45.8580  -47.2530 O.2   266  ARG266     -0.2864
    137  CB        -3.3970  -45.4250  -49.5410 C.3   266  ARG266      0.0334
    138  CG        -1.9770  -45.2720  -50.0460 C.3   266  ARG266      0.0492
    139  CD        -1.8660  -44.6570  -51.3770 C.3   266  ARG266      0.2205
    140  NE        -0.7860  -43.6830  -51.3500 N.pl3 266  ARG266     -0.0865
    141  CZ        -1.0280  -42.3840  -51.5370 C.cat 266  ARG266      0.5346
    142  NH1       -2.2690  -41.9350  -51.7430 N.pl3 266  ARG266      0.1354
    143  NH2        0.0110  -41.5570  -51.5430 N.pl3 266  ARG266      0.1354
    144  N         -7.2840  -42.2470  -46.2600 N.3   268  PRO268     -0.2116
    145  CA        -7.9610  -40.9710  -46.5410 C.3   268  PRO268      0.1372
    146  C         -7.3140  -39.7070  -45.9160 C.2   268  PRO268      0.2244
    147  O         -6.8460  -39.7670  -44.7690 O.2   268  PRO268     -0.2868
    148  CB        -9.3870  -41.2510  -46.0750 C.3   268  PRO268      0.0268
    149  CG        -9.5910  -42.7280  -46.3440 C.3   268  PRO268      0.0207
    150  CD        -8.2480  -43.3160  -45.9650 C.3   268  PRO268      0.0892
    151  N        -10.1050  -40.5620  -53.2380 N.3   305  ASP305     -0.1239
    152  CA        -9.5300  -41.2090  -52.0980 C.3   305  ASP305      0.1674
    153  C        -10.0600  -40.7680  -50.7530 C.2   305  ASP305      0.2266
    154  O        -10.1540  -41.6120  -49.8550 O.2   305  ASP305     -0.2867
    155  CB        -7.9960  -41.0350  -52.1540 C.3   305  ASP305      0.1410
    156  CG        -7.2650  -41.8370  -53.2540 C.2   305  ASP305      0.3668
    157  OD1       -7.9410  -42.4060  -54.1110 O.co2 305  ASP305     -0.2456
    158  OD2       -6.0210  -41.8810  -53.2830 O.co2 305  ASP305     -0.2456
    159  N        -12.4370  -42.9500  -49.6240 N.3   308  GLY308     -0.1210
    160  CA       -11.7890  -44.2030  -49.4220 C.3   308  GLY308      0.1956
    161  C        -12.0320  -45.1210  -50.5860 C.2   308  GLY308      0.2612
    162  O        -11.3510  -45.0680  -51.6160 O.2   308  GLY308     -0.2717
    163  N        -13.1480  -45.8130  -50.2910 N.am  309  GLU309     -0.1966
    164  CA       -13.7410  -46.9820  -50.9630 C.3   309  GLU309      0.1718
    165  C        -12.8480  -47.6100  -52.0440 C.2   309  GLU309      0.2458
    166  O        -11.7780  -47.9790  -51.5200 O.2   309  GLU309     -0.2730
    167  CB       -15.1720  -46.5330  -51.4320 C.3   309  GLU309      0.0428
    168  CG       -16.1670  -46.4190  -50.2320 C.3   309  GLU309      0.1163
    169  CD       -17.6700  -46.1420  -50.4720 C.2   309  GLU309      0.3649
    170  OE1      -18.2150  -46.4510  -51.5390 O.co2 309  GLU309     -0.2457
    171  OE2      -18.3200  -45.6220  -49.5560 O.co2 309  GLU309     -0.2457
    172  N        -12.9410  -47.8690  -53.3720 N.am  310  PRO310     -0.2716
    173  CA       -11.7350  -48.2650  -54.1050 C.3   310  PRO310      0.1536
    174  C        -10.8150  -47.1050  -54.4550 C.2   310  PRO310      0.2598
    175  O        -11.1150  -46.2300  -55.2670 O.2   310  PRO310     -0.2715
    176  CB       -12.2150  -49.0540  -55.3520 C.3   310  PRO310      0.0310
    177  CG       -13.7050  -49.2140  -55.1850 C.3   310  PRO310      0.0237
    178  CD       -14.1500  -48.1430  -54.1590 C.3   310  PRO310      0.0939
    179  N         -9.6500  -47.0990  -53.8350 N.am  311  MET311     -0.1964
    180  CA        -8.6940  -46.0720  -54.1210 C.3   311  MET311      0.1736
    181  C         -7.9080  -46.0730  -55.4400 C.2   311  MET311      0.2616
    182  O         -6.6800  -46.3130  -55.5350 O.2   311  MET311     -0.2715
    183  CB        -7.7220  -45.9990  -52.9560 C.3   311  MET311      0.0427
    184  CG        -8.2260  -45.3800  -51.6450 C.3   311  MET311      0.0599
    185  SD        -6.7850  -44.9500  -50.6330 S.3   311  MET311     -0.1393
    186  CE        -8.0110  -44.9510  -49.3640 C.3   311  MET311      0.0692
    187  N         -8.6580  -45.6390  -56.4710 N.am  312  LEU312     -0.1977
    188  CA        -8.1320  -45.4600  -57.8450 C.3   312  LEU312      0.1596
    189  C         -8.5480  -44.1720  -58.5970 C.2   312  LEU312      0.2287
    190  O         -9.7310  -43.7940  -58.5730 O.2   312  LEU312     -0.2864
    191  CB        -8.5680  -46.6160  -58.7360 C.3   312  LEU312      0.0297
    192  CG        -8.4230  -48.0330  -58.2770 C.3   312  LEU312      0.0022
    193  CD1       -9.6170  -48.7900  -58.7970 C.3   312  LEU312      0.0001
    194  CD2       -7.0250  -48.4760  -58.5770 C.3   312  LEU312      0.0001
@<TRIPOS>BOND
     1   193   192    1
     2   191   192    1
     3   191   188    1
     4   189   190    2
     5   189   188    1
     6   194   192    1
     7   188   187    1
     8    35    37   ar
     9    35    33   ar
    10    37    38   ar
    11    32    33    1
    12    32    29    1
    13    31    30    2
    14    33    34   ar
    15    38    39    1
    16    38    36   ar
    17   187   181   am
    18    30    29    1
    19    30    40   am
    20    29    28    1
    21    34    36   ar
    22   182   181    2
    23    43    42    2
    24   181   180    1
    25    40    41    1
    26   176   177    1
    27   176   173    1
    28   175   174    2
    29    41    42    1
    30    41    44    1
    31   177   178    1
    32    28    26   am
    33    47    45    1
    34   174   173    1
    35   174   179   am
    36    45    44    1
    37    27    26    2
    38    26    25    1
    39   178   172    1
    40   180   179    1
    41   180   183    1
    42   157   156   ar
    43   173   172    1
    44    44    46    1
    45   172   165   am
    46   158   156   ar
    47   156   155    1
    48   151   152    1
    49    90    89    2
    50    89    88    1
    51   183   184    1
    52    25    24    1
    53    92    91    1
    54    91    88    1
    55    91    93    1
    56    24    22   am
    57    23    22    2
    58   155   152    1
    59   152   153    1
    60   165   166    2
    61   165   164    1
    62    88    87    1
    63    22    21    1
    64   142   141    1
    65    87    82   am
    66   184   185    1
    67   162   161    2
    68   143   141    1
    69    80    81    1
    70    80    86    1
    71   170   169   ar
    72   141   140    2
    73   167   164    1
    74   167   168    1
    75   139   140    1
    76   139   138    1
    77    21    20    1
    78   164   163    1
    79    82    81    1
    80    82    83    2
    81   153   154    2
    82    81    84    1
    83    86    85    1
    84    19    18    2
    85   185   186    1
    86   161   163   am
    87   161   160    1
    88   169   168    1
    89   169   171   ar
    90   121   118    1
    91    20    18   am
    92   138   137    1
    93    18    17    1
    94   159   160    1
    95   137   134    1
    96    85    84    1
    97   120   119    2
    98   118   119    1
    99   118   117    1
   100   119   122   am
   101    17    16    1
   102    48    49    1
   103    62    61   ar
   104   134   133    1
   105   134   135    1
   106    60    59    1
   107    60    61    1
   108    59    56    1
   109   133   131   am
   110    61    63   ar
   111    16    11   am
   112     9    10    1
   113   131   132    2
   114   131   130    1
   115    12    11    2
   116   130   129    1
   117    11    10    1
   118   129   124   am
   119   135   136    2
   120   122   123    1
   121    51    50    2
   122    49    50    1
   123    49    52    1
   124    50    55   am
   125    10    13    1
   126    55    56    1
   127    56    57    1
   128   145   144    1
   129   145   148    1
   130   145   146    1
   131   124   123    1
   132   124   125    2
   133   149   148    1
   134   149   150    1
   135   123   126    1
   136   144   150    1
   137    72    71    2
   138    54    52    1
   139    73    74    1
   140    73    70    1
   141   146   147    2
   142    71    70    1
   143    52    53    1
   144    78    77    1
   145    79    77    1
   146    57    58    2
   147    57    64   am
   148    77    76    2
   149    13    15    1
   150    13    14    1
   151    76    75    1
   152    75    74    1
   153    70    69    1
   154    69    66   am
   155   126   127    1
   156   126   128    1
   157    64    65    1
   158    66    65    1
   159    66    67    2
   160    65    68    1
   161    94    95    1
   162    97    96    2
   163   100   102   ar
   164   100    99   ar
   165   116   114    1
   166    98    99    1
   167    98    95    1
   168   102   103   ar
   169    99   101   ar
   170    95    96    1
   171   103   101   ar
   172    96   104   am
   173     7     6    1
   174     6     8    1
   175     6     5    1
   176   114   115    1
   177   114   111    1
   178     1     2    1
   179   104   105    1
   180   110   111    1
   181   110   106   am
   182   105   106    1
   183   105   108    1
   184     5     2    1
   185   111   112    1
   186   106   107    2
   187     2     3    1
   188   109   108    1
   189   112   113    2
   190     4     3    2
