@<TRIPOS>MOLECULE
tmp/1lvmA01.pdb
 109 108 0 0 0
SMALL
GASTEIGER

@<TRIPOS>ATOM
      1  N          6.4290   92.2640   32.9860 N.3    64  LEU64      -0.1245
      2  CA         6.4850   90.9830   33.7390 C.3    64  LEU64       0.1561
      3  C          7.5930   90.1720   33.0870 C.2    64  LEU64       0.2260
      4  O          7.5970   90.0020   31.8690 O.2    64  LEU64      -0.2867
      5  CB         5.1840   90.2330   33.6020 C.3    64  LEU64       0.0270
      6  CG         4.9450   89.0290   34.5250 C.3    64  LEU64       0.0019
      7  CD1        4.9790   89.4670   36.0040 C.3    64  LEU64       0.0001
      8  CD2        3.5760   88.4590   34.2080 C.3    64  LEU64       0.0001
      9  N          9.3020   84.5150   38.4660 N.3    71  VAL71      -0.1231
     10  CA         8.6050   85.6100   37.8140 C.3    71  VAL71       0.1692
     11  C          8.8390   86.9260   38.5740 C.2    71  VAL71       0.2592
     12  O          8.6490   86.9760   39.7640 O.2    71  VAL71      -0.2718
     13  CB         7.1210   85.2670   37.7310 C.3    71  VAL71       0.0266
     14  CG1        6.4130   86.2980   36.9160 C.3    71  VAL71       0.0020
     15  CG2        6.9300   83.8710   37.1180 C.3    71  VAL71       0.0020
     16  N          9.2650   87.9800   37.8700 N.am   72  PHE72      -0.1962
     17  CA         9.5580   89.2530   38.4930 C.3    72  PHE72       0.1771
     18  C          8.8020   90.3100   37.7580 C.2    72  PHE72       0.2619
     19  O          8.6040   90.2040   36.5430 O.2    72  PHE72      -0.2715
     20  CB        11.0370   89.5420   38.4230 C.3    72  PHE72       0.0574
     21  CG        11.8720   88.4600   39.0330 C.ar   72  PHE72      -0.0200
     22  CD1       12.1850   87.3010   38.3050 C.ar   72  PHE72      -0.0042
     23  CD2       12.3040   88.5570   40.3670 C.ar   72  PHE72      -0.0042
     24  CE1       12.9140   86.2600   38.8930 C.ar   72  PHE72      -0.0003
     25  CE2       13.0480   87.4820   40.9710 C.ar   72  PHE72      -0.0003
     26  CZ        13.3390   86.3590   40.2230 C.ar   72  PHE72      -0.0000
     27  N          8.3720   91.3160   38.4830 N.am   73  LYS73      -0.1963
     28  CA         7.6300   92.3860   37.8500 C.3    73  LYS73       0.1728
     29  C          8.2480   93.7350   38.0850 C.2    73  LYS73       0.2616
     30  O          8.5670   94.1080   39.2170 O.2    73  LYS73      -0.2715
     31  CB         6.2030   92.4040   38.3870 C.3    73  LYS73       0.0311
     32  CG         5.2930   93.3670   37.6470 C.3    73  LYS73       0.0038
     33  CD         3.9050   93.3330   38.3260 C.3    73  LYS73       0.0206
     34  CE         2.7960   93.8820   37.4270 C.3    73  LYS73       0.1093
     35  NZ         2.2630   92.8410   36.4970 N.3    73  LYS73      -0.1314
     36  N          8.4570   94.4520   36.9930 N.am   74  VAL74      -0.1963
     37  CA         8.9860   95.8050   37.0340 C.3    74  VAL74       0.1727
     38  C          7.7580   96.6990   37.1490 C.2    74  VAL74       0.2616
     39  O          6.9140   96.7170   36.2530 O.2    74  VAL74      -0.2715
     40  CB         9.7140   96.1550   35.6960 C.3    74  VAL74       0.0290
     41  CG1       10.1810   97.6390   35.6800 C.3    74  VAL74       0.0023
     42  CG2       10.8800   95.2330   35.5050 C.3    74  VAL74       0.0023
     43  N          7.6930   97.5030   38.2090 N.am   75  LYS75      -0.1963
     44  CA         6.5130   98.3120   38.4240 C.3    75  LYS75       0.1728
     45  C          6.3100   99.4640   37.4800 C.2    75  LYS75       0.2616
     46  O          5.1790   99.8450   37.1750 O.2    75  LYS75      -0.2715
     47  CB         6.5230   98.8270   39.8780 C.3    75  LYS75       0.0311
     48  CG         6.4640   97.6650   40.8930 C.3    75  LYS75       0.0038
     49  CD         6.2890   98.1340   42.3400 C.3    75  LYS75       0.0206
     50  CE         7.4530   98.9970   42.8300 C.3    75  LYS75       0.1093
     51  NZ         7.3470   99.3280   44.2920 N.3    75  LYS75      -0.1314
     52  N          7.4030  100.0220   37.0380 N.am   76  ASN76      -0.1972
     53  CA         7.3280  101.1530   36.1260 C.3    76  ASN76       0.1688
     54  C          8.4150  100.9980   35.0560 C.2    76  ASN76       0.2292
     55  O          9.5970  101.1790   35.2930 O.2    76  ASN76      -0.2864
     56  CB         7.5090  102.4520   36.9550 C.3    76  ASN76       0.1181
     57  CG         7.3640  103.6930   36.1200 C.2    76  ASN76       0.2629
     58  OD1        7.4390  103.6380   34.9150 O.2    76  ASN76      -0.2716
     59  ND2        7.1720  104.8410   36.7720 N.am   76  ASN76      -0.0877
     60  N         11.5320  103.2620   34.2320 N.3    79  THR79      -0.1218
     61  CA        12.7490  103.2600   35.0530 C.3    79  THR79       0.1862
     62  C         13.8260  102.3280   34.4960 C.2    79  THR79       0.2287
     63  O         14.9940  102.3440   34.9160 O.2    79  THR79      -0.2866
     64  CB        12.4340  102.8060   36.5200 C.3    79  THR79       0.1770
     65  OG1       12.0620  101.4060   36.5510 O.3    79  THR79      -0.2211
     66  CG2       11.2530  103.6260   37.0390 C.3    79  THR79       0.0375
     67  N         18.5310   95.0340   33.7150 N.3    95  MET95      -0.1231
     68  CA        17.6100   94.8020   34.8120 C.3    95  MET95       0.1687
     69  C         18.2040   95.3900   36.1330 C.2    95  MET95       0.2434
     70  O         19.4170   95.4790   36.3100 O.2    95  MET95      -0.2733
     71  CB        17.3520   93.2990   34.9670 C.3    95  MET95       0.0400
     72  CG        16.6240   92.6950   33.7450 C.3    95  MET95       0.0596
     73  SD        14.9610   93.4050   33.5410 S.3    95  MET95      -0.1393
     74  CE        14.0380   92.7270   34.9000 C.3    95  MET95       0.0692
     75  N         17.3220   95.7460   37.0410 N.am   96  PRO96      -0.2718
     76  CA        17.7590   96.3190   38.3280 C.3    96  PRO96       0.1535
     77  C         18.5410   95.2920   39.1470 C.2    96  PRO96       0.2598
     78  O         18.4340   94.1060   38.8840 O.2    96  PRO96      -0.2715
     79  CB        16.4600   96.7340   38.9750 C.3    96  PRO96       0.0310
     80  CG        15.4210   95.7900   38.3810 C.3    96  PRO96       0.0237
     81  CD        15.8600   95.7360   36.9180 C.3    96  PRO96       0.0939
     82  N         19.3110   95.7380   40.1440 N.am   97  LYS97      -0.1964
     83  CA        20.1160   94.8140   40.9400 C.3    97  LYS97       0.1728
     84  C         19.3970   93.7160   41.6640 C.2    97  LYS97       0.2616
     85  O         19.9820   92.6490   41.9660 O.2    97  LYS97      -0.2715
     86  CB        20.9500   95.5790   41.9470 C.3    97  LYS97       0.0311
     87  CG        22.0540   96.3460   41.2710 C.3    97  LYS97       0.0038
     88  CD        22.8360   97.1600   42.2720 C.3    97  LYS97       0.0206
     89  CE        24.0800   97.7230   41.6280 C.3    97  LYS97       0.1093
     90  NZ        24.9630   98.2730   42.6890 N.3    97  LYS97      -0.1314
     91  N         18.1390   93.9600   41.9780 N.am   98  ASP98      -0.1957
     92  CA        17.3680   92.9490   42.6630 C.3    98  ASP98       0.1840
     93  C         16.8280   91.8530   41.7480 C.2    98  ASP98       0.2622
     94  O         16.1860   90.9220   42.2050 O.2    98  ASP98      -0.2715
     95  CB        16.2470   93.5740   43.5340 C.3    98  ASP98       0.1450
     96  CG        15.2560   94.4410   42.7520 C.2    98  ASP98       0.3671
     97  OD1       15.5860   95.0200   41.6920 O.co2  98  ASP98      -0.2456
     98  OD2       14.1300   94.5860   43.2690 O.co2  98  ASP98      -0.2456
     99  N         17.0950   91.9590   40.4500 N.am   99  PHE99      -0.1974
    100  CA        16.7120   90.8730   39.5330 C.3    99  PHE99       0.1639
    101  C         17.9790   89.9870   39.4410 C.2    99  PHE99       0.2290
    102  O         19.0680   90.4870   39.1890 O.2    99  PHE99      -0.2864
    103  CB        16.3610   91.4300   38.1450 C.3    99  PHE99       0.0560
    104  CG        16.0750   90.3650   37.1450 C.ar   99  PHE99      -0.0200
    105  CD1       14.7970   89.7940   37.0850 C.ar   99  PHE99      -0.0042
    106  CD2       17.0430   89.9540   36.2460 C.ar   99  PHE99      -0.0042
    107  CE1       14.4650   88.8160   36.1260 C.ar   99  PHE99      -0.0003
    108  CE2       16.7280   88.9710   35.2670 C.ar   99  PHE99      -0.0003
    109  CZ        15.4080   88.4050   35.2220 C.ar   99  PHE99      -0.0000
@<TRIPOS>BOND
     1     4     3    2
     2     1     2    1
     3     3     2    1
     4    73    72    1
     5    73    74    1
     6     5     2    1
     7     5     6    1
     8    67    68    1
     9    72    71    1
    10     8     6    1
    11    60    61    1
    12    62    63    2
    13    62    61    1
    14     6     7    1
    15    68    71    1
    16    68    69    1
    17    58    57    2
    18    61    64    1
    19    54    55    2
    20    54    53    1
    21   109   108   ar
    22   109   107   ar
    23   108   106   ar
    24    42    40    1
    25    41    40    1
    26    40    37    1
    27    57    59   am
    28    57    56    1
    29   107   105   ar
    30    53    56    1
    31    53    52    1
    32    69    70    2
    33    69    75   am
    34   106   104   ar
    35    39    38    2
    36    35    34    1
    37    64    65    1
    38    64    66    1
    39    19    18    2
    40    14    13    1
    41    81    75    1
    42    81    80    1
    43    36    37    1
    44    36    29   am
    45    37    38    1
    46    52    45   am
    47    75    76    1
    48   105   104   ar
    49    15    13    1
    50   104   103    1
    51    38    43   am
    52    46    45    2
    53    34    33    1
    54    45    44    1
    55    32    33    1
    56    32    31    1
    57    13    10    1
    58    18    27   am
    59    18    17    1
    60    10     9    1
    61    10    11    1
    62    28    29    1
    63    28    31    1
    64    28    27    1
    65    16    17    1
    66    16    11   am
    67    29    30    2
    68   103   100    1
    69    43    44    1
    70    22    24   ar
    71    22    21   ar
    72    76    79    1
    73    76    77    1
    74    80    79    1
    75    20    17    1
    76    20    21    1
    77    44    47    1
    78    11    12    2
    79    78    77    2
    80    24    26   ar
    81    21    23   ar
    82    77    82   am
    83   102   101    2
    84   101   100    1
    85   100    99    1
    86    47    48    1
    87    82    83    1
    88    26    25   ar
    89    23    25   ar
    90    99    93   am
    91    48    49    1
    92    83    84    1
    93    83    86    1
    94    87    86    1
    95    87    88    1
    96    89    88    1
    97    89    90    1
    98    84    85    2
    99    84    91   am
   100    97    96   ar
   101    93    94    2
   102    93    92    1
   103    91    92    1
   104    49    50    1
   105    92    95    1
   106    96    98   ar
   107    96    95    1
   108    50    51    1
