@<TRIPOS>MOLECULE
tmp/1lvuD00.pdb
 152 145 0 0 0
SMALL
GASTEIGER

@<TRIPOS>ATOM
      1  N         41.6060   52.1480  216.9250 N.3    31  GLY31      -0.1210
      2  CA        43.0440   52.0990  217.0890 C.3    31  GLY31       0.1956
      3  C         43.5770   50.7310  216.7030 C.2    31  GLY31       0.2612
      4  O         42.8390   49.8930  216.1710 O.2    31  GLY31      -0.2717
      5  N         44.8590   50.4940  216.9630 N.am   32  SER32      -0.1952
      6  CA        45.4550   49.2070  216.6290 C.3    32  SER32       0.1924
      7  C         44.8970   48.1470  217.5730 C.2    32  SER32       0.2314
      8  O         44.7820   48.3760  218.7780 O.2    32  SER32      -0.2863
      9  CB        46.9800   49.2630  216.7670 C.3    32  SER32       0.2116
     10  OG        47.3650   49.2960  218.1290 O.3    32  SER32      -0.2180
     11  N         44.2560   53.2470  210.4950 N.3    83  ARG83      -0.1245
     12  CA        44.3600   54.6940  210.4340 C.3    83  ARG83       0.1563
     13  C         45.6870   55.1560  209.8520 C.2    83  ARG83       0.2260
     14  O         46.4930   54.3440  209.3980 O.2    83  ARG83      -0.2867
     15  CB        44.1380   55.3120  211.8240 C.3    83  ARG83       0.0307
     16  CG        45.1010   54.8400  212.9000 C.3    83  ARG83       0.0489
     17  CD        45.2490   55.8940  213.9940 C.3    83  ARG83       0.2205
     18  NE        44.0970   55.9840  214.8880 N.pl3  83  ARG83      -0.0865
     19  CZ        43.7760   57.0760  215.5770 C.cat  83  ARG83       0.5346
     20  NH1       44.5160   58.1710  215.4660 N.pl3  83  ARG83       0.1354
     21  NH2       42.7280   57.0730  216.3890 N.pl3  83  ARG83       0.1354
     22  N         49.2740   57.5500  210.3280 N.3    85  HIS85      -0.1241
     23  CA        50.1640   58.1000  211.3470 C.3    85  HIS85       0.1621
     24  C         51.2450   58.9710  210.7330 C.2    85  HIS85       0.2264
     25  O         51.7240   58.7030  209.6340 O.2    85  HIS85      -0.2867
     26  CB        50.8700   56.9780  212.1110 C.3    85  HIS85       0.0745
     27  CG        49.9520   55.9060  212.6090 C.ar   85  HIS85       0.0817
     28  ND1       49.3810   55.9360  213.8620 N.ar   85  HIS85      -0.2268
     29  CD2       49.5270   54.7610  212.0290 C.ar   85  HIS85       0.1154
     30  CE1       48.6470   54.8510  214.0330 C.ar   85  HIS85       0.1986
     31  NE2       48.7200   54.1220  212.9350 N.ar   85  HIS85      -0.2212
     32  N         54.2870   59.1170  211.6070 N.3    87  TYR87      -0.1241
     33  CA        55.5130   58.3350  211.4350 C.3    87  TYR87       0.1605
     34  C         55.5670   57.5280  210.1390 C.2    87  TYR87       0.2264
     35  O         56.6240   57.0160  209.7700 O.2    87  TYR87      -0.2867
     36  CB        55.7440   57.4060  212.6390 C.3    87  TYR87       0.0534
     37  CG        54.7400   56.2770  212.8080 C.ar   87  TYR87      -0.0201
     38  CD1       54.6800   55.2140  211.9000 C.ar   87  TYR87      -0.0009
     39  CD2       53.8640   56.2640  213.8880 C.ar   87  TYR87      -0.0009
     40  CE1       53.7640   54.1670  212.0710 C.ar   87  TYR87       0.0417
     41  CE2       52.9520   55.2330  214.0680 C.ar   87  TYR87       0.0417
     42  CZ        52.9010   54.1890  213.1590 C.ar   87  TYR87       0.1957
     43  OH        51.9620   53.1950  213.3340 O.3    87  TYR87      -0.2866
     44  N         42.6050   54.2390  220.6860 N.3   114  ASN114     -0.1225
     45  CA        43.9880   53.9260  220.3520 C.3   114  ASN114      0.1785
     46  C         44.5910   53.0260  221.4250 C.2   114  ASN114      0.2597
     47  O         43.9790   52.7950  222.4720 O.2   114  ASN114     -0.2718
     48  CB        44.8170   55.2260  220.1990 C.3   114  ASN114      0.1169
     49  CG        44.9090   56.0470  221.4900 C.2   114  ASN114      0.2627
     50  OD1       44.6770   57.2670  221.4920 O.2   114  ASN114     -0.2716
     51  ND2       45.2720   55.3950  222.5770 N.am  114  ASN114     -0.0877
     52  N         45.7700   52.4880  221.1370 N.am  115  ALA115     -0.1966
     53  CA        46.4990   51.6530  222.0870 C.3   115  ALA115      0.1728
     54  C         47.5930   52.5980  222.5640 C.2   115  ALA115      0.2616
     55  O         48.1550   53.3410  221.7610 O.2   115  ALA115     -0.2715
     56  CB        47.1180   50.4300  221.3800 C.3   115  ALA115      0.0334
     57  N         47.8930   52.5860  223.8560 N.am  116  ALA116     -0.1963
     58  CA        48.9130   53.4820  224.3820 C.3   116  ALA116      0.1728
     59  C         49.7650   52.8660  225.4790 C.2   116  ALA116      0.2616
     60  O         49.3840   51.8670  226.1030 O.2   116  ALA116     -0.2715
     61  CB        48.2560   54.7550  224.9090 C.3   116  ALA116      0.0334
     62  N         50.9190   53.4870  225.7080 N.am  117  GLY117     -0.1955
     63  CA        51.8210   53.0350  226.7490 C.3   117  GLY117      0.1869
     64  C         51.4280   53.7490  228.0230 C.2   117  GLY117      0.2309
     65  O         51.1250   54.9390  227.9930 O.2   117  GLY117     -0.2863
     66  N         46.4930   62.1710  227.5240 N.3   191  TYR191     -0.1241
     67  CA        47.1810   61.4270  226.4840 C.3   191  TYR191      0.1605
     68  C         48.1900   62.3620  225.8400 C.2   191  TYR191      0.2264
     69  O         47.8560   63.4960  225.5030 O.2   191  TYR191     -0.2867
     70  CB        46.1730   60.9440  225.4350 C.3   191  TYR191      0.0534
     71  CG        46.7880   60.2980  224.2040 C.ar  191  TYR191     -0.0201
     72  CD1       47.1870   61.0680  223.1060 C.ar  191  TYR191     -0.0009
     73  CD2       46.9320   58.9140  224.1200 C.ar  191  TYR191     -0.0009
     74  CE1       47.7060   60.4730  221.9580 C.ar  191  TYR191      0.0417
     75  CE2       47.4520   58.3080  222.9760 C.ar  191  TYR191      0.0417
     76  CZ        47.8360   59.0930  221.8990 C.ar  191  TYR191      0.1957
     77  OH        48.3460   58.4940  220.7660 O.3   191  TYR191     -0.2866
     78  N         53.4610   61.9210  220.4080 N.3   194  LEU194     -0.1245
     79  CA        54.7620   62.2480  219.8620 C.3   194  LEU194      0.1561
     80  C         54.8510   61.5200  218.5220 C.2   194  LEU194      0.2260
     81  O         54.0710   60.6010  218.2540 O.2   194  LEU194     -0.2867
     82  CB        55.9030   61.8500  220.8100 C.3   194  LEU194      0.0270
     83  CG        55.7890   60.6340  221.7170 C.3   194  LEU194      0.0019
     84  CD1       55.6830   59.3680  220.8820 C.3   194  LEU194      0.0001
     85  CD2       57.0140   60.5920  222.6330 C.3   194  LEU194      0.0001
     86  N         60.1420   53.5790  220.0950 N.3   199  PHE199     -0.1227
     87  CA        59.5490   53.7730  221.4110 C.3   199  PHE199      0.1736
     88  C         60.5280   54.6040  222.2480 C.2   199  PHE199      0.2595
     89  O         61.7010   54.7370  221.8900 O.2   199  PHE199     -0.2718
     90  CB        59.2220   52.4320  222.0830 C.3   199  PHE199      0.0547
     91  CG        57.8490   51.8840  221.7150 C.ar  199  PHE199     -0.0202
     92  CD1       57.1760   51.0130  222.5700 C.ar  199  PHE199     -0.0042
     93  CD2       57.2410   52.2290  220.5090 C.ar  199  PHE199     -0.0042
     94  CE1       55.9180   50.4920  222.2280 C.ar  199  PHE199     -0.0003
     95  CE2       55.9850   51.7150  220.1560 C.ar  199  PHE199     -0.0003
     96  CZ        55.3250   50.8460  221.0160 C.ar  199  PHE199     -0.0000
     97  N         60.0410   55.1520  223.3580 N.am  200  GLU200     -0.1979
     98  CA        60.8230   56.0380  224.2190 C.3   200  GLU200      0.1602
     99  C         61.9760   55.4770  225.0570 C.2   200  GLU200      0.2287
    100  O         61.9810   54.3110  225.4430 O.2   200  GLU200     -0.2864
    101  CB        59.8780   56.7770  225.1740 C.3   200  GLU200      0.0415
    102  CG        58.8100   57.6550  224.5190 C.3   200  GLU200      0.1163
    103  CD        57.7380   56.8590  223.7860 C.2   200  GLU200      0.3649
    104  OE1       57.3270   55.7920  224.2950 O.co2 200  GLU200     -0.2457
    105  OE2       57.2940   57.3120  222.7080 O.co2 200  GLU200     -0.2457
    106  N         50.9590   57.4720  226.5530 N.3   216  VAL216     -0.1231
    107  CA        51.6910   57.9830  225.3900 C.3   216  VAL216      0.1692
    108  C         51.3990   57.1980  224.1190 C.2   216  VAL216      0.2593
    109  O         51.3240   55.9710  224.1380 O.2   216  VAL216     -0.2718
    110  CB        53.2170   57.9700  225.6400 C.3   216  VAL216      0.0266
    111  CG1       53.6680   56.5620  226.0260 C.3   216  VAL216      0.0020
    112  CG2       53.9640   58.4430  224.3880 C.3   216  VAL216      0.0020
    113  N         51.2480   57.9180  223.0120 N.am  217  GLY217     -0.1942
    114  CA        50.9690   57.2760  221.7410 C.3   217  GLY217      0.2014
    115  C         51.4580   58.1210  220.5810 C.2   217  GLY217      0.2639
    116  O         52.0970   59.1530  220.7960 O.2   217  GLY217     -0.2714
    117  N         51.1390   57.7030  219.3560 N.am  218  MET218     -0.1963
    118  CA        51.5850   58.4290  218.1680 C.3   218  MET218      0.1736
    119  C         50.4400   58.7750  217.2200 C.2   218  MET218      0.2617
    120  O         50.6330   58.8150  216.0050 O.2   218  MET218     -0.2715
    121  CB        52.6120   57.5940  217.3980 C.3   218  MET218      0.0427
    122  CG        53.7490   57.0120  218.2330 C.3   218  MET218      0.0599
    123  SD        54.6110   55.7100  217.3130 S.3   218  MET218     -0.1393
    124  CE        55.7790   55.1200  218.5560 C.3   218  MET218      0.0692
    125  N         49.2550   59.0280  217.7630 N.am  219  SER219     -0.1950
    126  CA        48.1070   59.3460  216.9200 C.3   219  SER219      0.1924
    127  C         47.0730   60.1300  217.7040 C.2   219  SER219      0.2314
    128  O         47.3900   60.7680  218.7040 O.2   219  SER219     -0.2863
    129  CB        47.4510   58.0570  216.4440 C.3   219  SER219      0.2116
    130  OG        46.7580   57.4380  217.5250 O.3   219  SER219     -0.2180
    131  N         48.1670   48.8860  226.4840 N.3   241  THR241     -0.1203
    132  CA        48.7180   47.6080  226.0520 C.3   241  THR241      0.1994
    133  C         50.0920   47.3160  226.6530 C.2   241  THR241      0.2617
    134  O         50.5750   46.1870  226.5850 O.2   241  THR241     -0.2717
    135  CB        48.8450   47.5540  224.5110 C.3   241  THR241      0.1784
    136  OG1       49.6270   48.6660  224.0580 O.3   241  THR241     -0.2211
    137  CG2       47.4710   47.6090  223.8530 C.3   241  THR241      0.0376
    138  N         50.7240   48.3340  227.2270 N.am  242  ASN242     -0.1974
    139  CA        52.0390   48.1540  227.8330 C.3   242  ASN242      0.1688
    140  C         52.3590   49.2280  228.8640 C.2   242  ASN242      0.2292
    141  O         51.9690   50.3900  228.7170 O.2   242  ASN242     -0.2864
    142  CB        53.1230   48.1350  226.7490 C.3   242  ASN242      0.1181
    143  CG        53.1780   49.4280  225.9490 C.2   242  ASN242      0.2629
    144  OD1       54.0340   50.2810  226.1820 O.2   242  ASN242     -0.2716
    145  ND2       52.2540   49.5810  225.0040 N.am  242  ASN242     -0.0877
    146  N         55.0540   51.5400  230.6610 N.3   244  VAL244     -0.1245
    147  CA        56.3610   52.1160  230.3930 C.3   244  VAL244      0.1561
    148  C         57.2400   52.0390  231.6430 C.2   244  VAL244      0.2260
    149  O         56.7720   52.2780  232.7560 O.2   244  VAL244     -0.2867
    150  CB        56.2190   53.5890  229.9510 C.3   244  VAL244      0.0252
    151  CG1       57.4210   54.3760  230.3770 C.3   244  VAL244      0.0019
    152  CG2       56.0540   53.6600  228.4390 C.3   244  VAL244      0.0019
@<TRIPOS>BOND
     1    14    13    2
     2    25    24    2
     3    35    34    2
     4    13    12    1
     5    34    33    1
     6    22    23    1
     7    12    11    1
     8    12    15    1
     9    24    23    1
    10    23    26    1
    11    33    32    1
    12    33    36    1
    13    15    16    1
    14    38    40   ar
    15    38    37   ar
    16    29    27   ar
    17    29    31   ar
    18    40    42   ar
    19    26    27    1
    20    27    28   ar
    21    36    37    1
    22    37    39   ar
    23    16    17    1
    24    31    30   ar
    25    42    43    1
    26    42    41   ar
    27    28    30   ar
    28    39    41   ar
    29    17    18    1
    30    18    19    2
    31    20    19    1
    32    19    21    1
    33   120   119    2
    34     4     3    2
    35   129   126    1
    36   129   130    1
    37     6     9    1
    38     6     5    1
    39     6     7    1
    40     3     5   am
    41     3     2    1
    42     9    10    1
    43   126   127    1
    44   126   125    1
    45     1     2    1
    46   119   125   am
    47   119   118    1
    48   123   122    1
    49   123   124    1
    50   121   118    1
    51   121   122    1
    52     7     8    2
    53   127   128    2
    54   118   117    1
    55    81    80    2
    56    80    79    1
    57   117   115   am
    58    79    78    1
    59    79    82    1
    60    86    87    1
    61    95    93   ar
    62    95    96   ar
    63    48    45    1
    64    48    49    1
    65    45    44    1
    66    45    46    1
    67    93    91   ar
    68   115   116    2
    69   115   114    1
    70    77    76    1
    71    82    83    1
    72    84    83    1
    73    96    94   ar
    74    52    46   am
    75    52    53    1
    76    56    53    1
    77    87    90    1
    78    87    88    1
    79    46    47    2
    80    49    50    2
    81    49    51   am
    82    91    90    1
    83    91    92   ar
    84    83    85    1
    85   114   113    1
    86    55    54    2
    87    89    88    2
    88    76    74   ar
    89    76    75   ar
    90    74    72   ar
    91    53    54    1
    92    94    92   ar
    93    88    97   am
    94    54    57   am
    95   105   103   ar
    96    75    73   ar
    97   113   108   am
    98    72    71   ar
    99    97    98    1
   100   103   104   ar
   101   103   102    1
   102   137   135    1
   103    57    58    1
   104   136   135    1
   105   108   109    2
   106   108   107    1
   107    73    71   ar
   108    71    70    1
   109    98    99    1
   110    98   101    1
   111    58    61    1
   112    58    59    1
   113   112   110    1
   114   135   132    1
   115   102   101    1
   116   145   143   am
   117    99   100    2
   118   107   110    1
   119   107   106    1
   120    70    67    1
   121    59    62   am
   122    59    60    2
   123    69    68    2
   124   110   111    1
   125    62    63    1
   126    68    67    1
   127   143   144    2
   128   143   142    1
   129   132   131    1
   130   132   133    1
   131    67    66    1
   132   134   133    2
   133   133   138   am
   134    63    64    1
   135   142   139    1
   136   138   139    1
   137   139   140    1
   138    65    64    2
   139   152   150    1
   140   141   140    2
   141   150   151    1
   142   150   147    1
   143   147   146    1
   144   147   148    1
   145   148   149    2
