@<TRIPOS>MOLECULE
tmp/1lvwA01.pdb
 144 143 0 0 0
SMALL
GASTEIGER

@<TRIPOS>ATOM
      1  N          3.3320    2.1390   52.2210 N.3    42  SER42      -0.1217
      2  CA         4.3920    1.1380   52.1210 C.3    42  SER42       0.1889
      3  C          3.9120   -0.2020   52.6630 C.2    42  SER42       0.2288
      4  O          4.3290   -1.2670   52.1940 O.2    42  SER42      -0.2866
      5  CB         5.6710    1.6030   52.8710 C.3    42  SER42       0.2089
      6  OG         5.5690    1.4450   54.2940 O.3    42  SER42      -0.2183
      7  N          3.9400   -3.6070   50.6920 N.3    46  LEU46      -0.1245
      8  CA         4.6610   -4.7630   51.2260 C.3    46  LEU46       0.1561
      9  C          3.7380   -5.9740   51.3210 C.2    46  LEU46       0.2260
     10  O          4.2230   -7.1130   51.3130 O.2    46  LEU46      -0.2867
     11  CB         5.2830   -4.4530   52.6030 C.3    46  LEU46       0.0270
     12  CG         6.5020   -3.5160   52.4870 C.3    46  LEU46       0.0019
     13  CD1        6.8600   -2.9730   53.8910 C.3    46  LEU46       0.0001
     14  CD2        7.6870   -4.2530   51.8580 C.3    46  LEU46       0.0001
     15  N          3.9350    1.9540   61.1040 N.3   114  PHE114     -0.1227
     16  CA         4.4110    0.7250   61.7420 C.3   114  PHE114      0.1736
     17  C          5.8080    0.3820   61.2760 C.2   114  PHE114      0.2595
     18  O          6.1590    0.6410   60.1240 O.2   114  PHE114     -0.2718
     19  CB         3.5480   -0.4610   61.3250 C.3   114  PHE114      0.0547
     20  CG         2.0750   -0.2600   61.5280 C.ar  114  PHE114     -0.0202
     21  CD1        1.2250   -0.1880   60.4400 C.ar  114  PHE114     -0.0042
     22  CD2        1.5330   -0.2030   62.8150 C.ar  114  PHE114     -0.0042
     23  CE1       -0.1480   -0.0750   60.6000 C.ar  114  PHE114     -0.0003
     24  CE2        0.1480   -0.0820   62.9920 C.ar  114  PHE114     -0.0003
     25  CZ        -0.6930   -0.0220   61.8810 C.ar  114  PHE114     -0.0000
     26  N          6.5790   -0.2610   62.1440 N.am  115  TYR115     -0.1962
     27  CA         7.9080   -0.6770   61.7360 C.3   115  TYR115      0.1774
     28  C          8.4090   -1.8220   62.5860 C.2   115  TYR115      0.2659
     29  O          8.2090   -1.8270   63.8010 O.2   115  TYR115     -0.2711
     30  CB         8.9050    0.4620   61.8890 C.3   115  TYR115      0.0574
     31  CG        10.3190    0.0450   61.5230 C.ar  115  TYR115     -0.0198
     32  CD1       10.7280   -0.0350   60.1890 C.ar  115  TYR115     -0.0009
     33  CD2       11.2410   -0.2700   62.5200 C.ar  115  TYR115     -0.0009
     34  CE1       12.0460   -0.4230   59.8630 C.ar  115  TYR115      0.0417
     35  CE2       12.5550   -0.6560   62.2030 C.ar  115  TYR115      0.0417
     36  CZ        12.9420   -0.7230   60.8930 C.ar  115  TYR115      0.1957
     37  OH        14.2570   -1.0470   60.6200 O.3   115  TYR115     -0.2866
     38  N          9.0610   -2.7830   61.9400 N.am  116  GLY116     -0.1716
     39  CA         9.6650   -3.8600   62.6870 C.2   116  GLY116      0.1480
     40  C         10.2450   -4.9850   61.8550 C.2   116  GLY116      0.2820
     41  O          9.8050   -5.2560   60.7460 O.2   116  GLY116     -0.2669
     42  N         11.2260   -5.6580   62.4330 N.am  117  HIS117     -0.1925
     43  CA        11.8580   -6.8010   61.7970 C.3   117  HIS117      0.1790
     44  C         10.7950   -7.8940   61.6500 C.2   117  HIS117      0.2620
     45  O         10.0180   -8.1390   62.5680 O.2   117  HIS117     -0.2715
     46  CB        13.0040   -7.2920   62.6900 C.3   117  HIS117      0.0785
     47  CG        13.7080   -8.5020   62.1590 C.ar  117  HIS117      0.0821
     48  ND1       14.2330   -8.5540   60.8850 N.ar  117  HIS117     -0.2267
     49  CD2       14.0090   -9.6890   62.7420 C.ar  117  HIS117      0.1154
     50  CE1       14.8330   -9.7220   60.7040 C.ar  117  HIS117      0.1986
     51  NE2       14.7110  -10.4280   61.8150 N.ar  117  HIS117     -0.2212
     52  N         10.7690   -8.5330   60.4840 N.am  118  ARG118     -0.1963
     53  CA         9.8430   -9.6070   60.1630 C.3   118  ARG118      0.1729
     54  C          8.3620   -9.2120   60.1730 C.2   118  ARG118      0.2616
     55  O          7.4850   -9.9990   60.5380 O.2   118  ARG118     -0.2715
     56  CB        10.1270  -10.8210   61.0660 C.3   118  ARG118      0.0348
     57  CG        11.5500  -11.3720   60.8220 C.3   118  ARG118      0.0492
     58  CD        11.8450  -12.6600   61.5860 C.3   118  ARG118      0.2205
     59  NE        11.0230  -13.7640   61.1040 N.pl3 118  ARG118     -0.0865
     60  CZ        11.1820  -15.0410   61.4540 C.cat 118  ARG118      0.5346
     61  NH1       12.1440  -15.3970   62.3040 N.pl3 118  ARG118      0.1354
     62  NH2       10.3690  -15.9660   60.9370 N.pl3 118  ARG118      0.1354
     63  N          8.0970   -7.9810   59.7610 N.am  119  PHE119     -0.1960
     64  CA         6.7330   -7.4780   59.6700 C.3   119  PHE119      0.1771
     65  C          6.1250   -7.9250   58.3360 C.2   119  PHE119      0.2620
     66  O          4.9080   -8.1930   58.2590 O.2   119  PHE119     -0.2715
     67  CB         6.7220   -5.9460   59.7610 C.3   119  PHE119      0.0574
     68  CG         5.3330   -5.3280   59.7710 C.ar  119  PHE119     -0.0200
     69  CD1        4.3030   -5.8930   60.5230 C.ar  119  PHE119     -0.0042
     70  CD2        5.0820   -4.1340   59.0950 C.ar  119  PHE119     -0.0042
     71  CE1        3.0380   -5.2670   60.6020 C.ar  119  PHE119     -0.0003
     72  CE2        3.8270   -3.4990   59.1650 C.ar  119  PHE119     -0.0003
     73  CZ         2.8110   -4.0590   59.9150 C.ar  119  PHE119     -0.0000
     74  N          6.9480   -8.0120   57.2800 N.am  120  SER120     -0.1936
     75  CA         6.4080   -8.4300   55.9820 C.3   120  SER120      0.2055
     76  C          5.7400   -9.7870   56.0130 C.2   120  SER120      0.2642
     77  O          4.7180   -9.9820   55.3630 O.2   120  SER120     -0.2714
     78  CB         7.4830   -8.4590   54.8840 C.3   120  SER120      0.2130
     79  OG         7.6950   -7.1580   54.3860 O.3   120  SER120     -0.2179
     80  N          6.3050  -10.7350   56.7520 N.am  121  GLU121     -0.1976
     81  CA         5.6750  -12.0470   56.7750 C.3   121  GLU121      0.1602
     82  C          4.2860  -11.9850   57.4230 C.2   121  GLU121      0.2287
     83  O          3.3750  -12.7070   57.0120 O.2   121  GLU121     -0.2864
     84  CB         6.5860  -13.0840   57.4520 C.3   121  GLU121      0.0415
     85  CG         6.8680  -12.8930   58.9130 C.3   121  GLU121      0.1163
     86  CD         8.1100  -13.6780   59.3280 C.2   121  GLU121      0.3649
     87  OE1        9.2440  -13.2200   59.0340 O.co2 121  GLU121     -0.2457
     88  OE2        7.9610  -14.7580   59.9250 O.co2 121  GLU121     -0.2457
     89  N         16.1110    3.0550   53.9900 N.3   250  TYR250     -0.1227
     90  CA        14.9880    3.9370   54.3000 C.3   250  TYR250      0.1736
     91  C         13.7700    3.1520   54.7390 C.2   250  TYR250      0.2595
     92  O         13.5780    1.9870   54.3750 O.2   250  TYR250     -0.2718
     93  CB        14.5780    4.7360   53.0580 C.3   250  TYR250      0.0548
     94  CG        15.4220    5.9620   52.7570 C.ar  250  TYR250     -0.0200
     95  CD1       16.6120    6.2350   53.4570 C.ar  250  TYR250     -0.0009
     96  CD2       15.0110    6.8560   51.7890 C.ar  250  TYR250     -0.0009
     97  CE1       17.3510    7.3940   53.1670 C.ar  250  TYR250      0.0417
     98  CE2       15.7360    8.0060   51.5010 C.ar  250  TYR250      0.0417
     99  CZ        16.8960    8.2660   52.1880 C.ar  250  TYR250      0.1957
    100  OH        17.5730    9.4300   51.8740 O.3   250  TYR250     -0.2866
    101  N         12.9260    3.7990   55.5360 N.am  251  ILE251     -0.1966
    102  CA        11.6800    3.1740   55.9310 C.3   251  ILE251      0.1727
    103  C         10.6310    3.8380   55.0390 C.2   251  ILE251      0.2616
    104  O         10.5070    5.0650   55.0200 O.2   251  ILE251     -0.2715
    105  CB        11.3260    3.4650   57.4220 C.3   251  ILE251      0.0290
    106  CG1       12.3720    2.8050   58.3390 C.3   251  ILE251      0.0022
    107  CG2        9.9050    2.9180   57.7200 C.3   251  ILE251      0.0023
    108  CD1       12.1060    3.0970   59.8630 C.3   251  ILE251      0.0001
    109  N          9.8880    3.0090   54.2950 N.am  252  ALA252     -0.1963
    110  CA         8.8270    3.4710   53.4090 C.3   252  ALA252      0.1728
    111  C          9.2480    4.2840   52.1780 C.2   252  ALA252      0.2616
    112  O          8.5770    5.2470   51.7940 O.2   252  ALA252     -0.2715
    113  CB         7.7330    4.2230   54.2250 C.3   252  ALA252      0.0334
    114  N         10.3790    3.9080   51.5780 N.am  253  CYS253     -0.1968
    115  CA        10.7840    4.5150   50.2960 C.3   253  CYS253      0.1712
    116  C          9.9100    3.6700   49.3270 C.2   253  CYS253      0.2296
    117  O         10.2030    2.4950   49.0760 O.2   253  CYS253     -0.2864
    118  CB        12.2700    4.2730   50.0420 C.3   253  CYS253      0.0983
    119  SG        12.7290    4.7640   48.3590 S.3   253  CYS253     -0.0798
    120  N         11.6040    2.0610   46.3200 N.3   256  GLU256     -0.1231
    121  CA        12.4010    0.9050   46.6640 C.3   256  GLU256      0.1699
    122  C         11.5640   -0.3580   46.7230 C.2   256  GLU256      0.2592
    123  O         11.9480   -1.4000   46.1790 O.2   256  GLU256     -0.2718
    124  CB        13.1130    1.1160   48.0090 C.3   256  GLU256      0.0402
    125  CG        13.8080   -0.1400   48.5220 C.3   256  GLU256      0.1161
    126  CD        14.5430    0.1070   49.8340 C.2   256  GLU256      0.3649
    127  OE1       14.2760    1.1440   50.4920 O.co2 256  GLU256     -0.2457
    128  OE2       15.3770   -0.7310   50.2000 O.co2 256  GLU256     -0.2457
    129  N         10.4310   -0.2610   47.4150 N.am  257  ILE257     -0.1980
    130  CA         9.5430   -1.3940   47.5370 C.3   257  ILE257      0.1595
    131  C          9.0170   -1.8200   46.1630 C.2   257  ILE257      0.2287
    132  O          9.0120   -3.0020   45.8380 O.2   257  ILE257     -0.2864
    133  CB         8.3750   -1.0570   48.4890 C.3   257  ILE257      0.0276
    134  CG1        8.9300   -0.8970   49.9120 C.3   257  ILE257      0.0022
    135  CG2        7.3640   -2.2080   48.4740 C.3   257  ILE257      0.0022
    136  CD1        8.0020   -0.0840   50.8730 C.3   257  ILE257      0.0001
    137  N         11.9500   -3.5120   44.2260 N.3   260  ASN260     -0.1240
    138  CA        12.2560   -4.8590   44.6680 C.3   260  ASN260      0.1653
    139  C         11.1110   -5.8360   44.4560 C.2   260  ASN260      0.2266
    140  O         11.3430   -7.0450   44.3580 O.2   260  ASN260     -0.2867
    141  CB        12.7670   -4.8370   46.1060 C.3   260  ASN260      0.1155
    142  CG        14.1500   -4.2170   46.2040 C.2   260  ASN260      0.2627
    143  OD1       14.9840   -4.3910   45.3110 O.2   260  ASN260     -0.2716
    144  ND2       14.4090   -3.5050   47.2860 N.am  260  ASN260     -0.0877
@<TRIPOS>BOND
     1   137   138    1
     2   140   139    2
     3   139   138    1
     4   138   141    1
     5   143   142    2
     6   132   131    2
     7   141   142    1
     8   131   130    1
     9   123   122    2
    10   142   144   am
    11   120   121    1
    12   121   122    1
    13   121   124    1
    14   122   129   am
    15   129   130    1
    16   130   133    1
    17   124   125    1
    18   119   118    1
    19   135   133    1
    20   133   134    1
    21   125   126    1
    22   117   116    2
    23   116   115    1
    24   126   128   ar
    25   126   127   ar
    26   134   136    1
    27   118   115    1
    28   115   114    1
    29     7     8    1
    30     8     9    1
    31     8    11    1
    32    10     9    2
    33    98    96   ar
    34    98    99   ar
    35   114   111   am
    36    96    94   ar
    37   112   111    2
    38    14    12    1
    39   100    99    1
    40     2     1    1
    41     2     3    1
    42     2     5    1
    43   111   110    1
    44    99    97   ar
    45     4     3    2
    46    12    11    1
    47    12    13    1
    48    94    93    1
    49    94    95   ar
    50     5     6    1
    51    93    90    1
    52    97    95   ar
    53   110   113    1
    54   110   109    1
    55    89    90    1
    56   109   103   am
    57    90    91    1
    58    92    91    2
    59    79    78    1
    60    91   101   am
    61    78    75    1
    62   104   103    2
    63   103   102    1
    64    77    76    2
    65   101   102    1
    66   102   105    1
    67    75    76    1
    68    75    74    1
    69    76    80   am
    70    80    81    1
    71    81    82    1
    72    81    84    1
    73    83    82    2
    74    74    65   am
    75   105   107    1
    76   105   106    1
    77    84    85    1
    78    66    65    2
    79    65    64    1
    80   106   108    1
    81    85    86    1
    82    87    86   ar
    83    70    72   ar
    84    70    68   ar
    85    72    73   ar
    86    86    88   ar
    87    64    63    1
    88    64    67    1
    89    63    54   am
    90    67    68    1
    91    68    69   ar
    92    34    32   ar
    93    34    36   ar
    94    73    71   ar
    95    18    17    2
    96    53    54    1
    97    53    52    1
    98    53    56    1
    99    54    55    2
   100    32    31   ar
   101    21    23   ar
   102    21    20   ar
   103    52    44   am
   104    69    71   ar
   105    23    25   ar
   106    37    36    1
   107    50    48   ar
   108    50    51   ar
   109    41    40    2
   110    57    56    1
   111    57    58    1
   112    48    47   ar
   113    36    35   ar
   114    62    60    1
   115    59    60    2
   116    59    58    1
   117    15    16    1
   118    17    16    1
   119    17    26   am
   120    19    20    1
   121    19    16    1
   122    60    61    1
   123    31    30    1
   124    31    33   ar
   125    20    22   ar
   126    44    43    1
   127    44    45    2
   128    27    30    1
   129    27    26    1
   130    27    28    1
   131    43    42    1
   132    43    46    1
   133    51    49   ar
   134    40    42   am
   135    40    39    1
   136    25    24   ar
   137    38    28    1
   138    38    39    2
   139    47    46    1
   140    47    49   ar
   141    35    33   ar
   142    28    29    2
   143    22    24   ar
