@<TRIPOS>MOLECULE
tmp/1lvwA00.pdb
 127 116 0 0 0
SMALL
GASTEIGER

@<TRIPOS>ATOM
      1  N         -7.2370    5.5660   54.1830 N.3     9  LEU9       -0.1245
      2  CA        -8.1730    6.6110   54.6140 C.3     9  LEU9        0.1561
      3  C         -7.3710    7.7840   55.1570 C.2     9  LEU9        0.2260
      4  O         -6.7660    7.7050   56.2290 O.2     9  LEU9       -0.2867
      5  CB        -9.1680    6.0430   55.6580 C.3     9  LEU9        0.0270
      6  CG       -10.2210    7.0380   56.1770 C.3     9  LEU9        0.0019
      7  CD1      -11.1220    7.5630   55.0350 C.3     9  LEU9        0.0001
      8  CD2      -11.0920    6.3150   57.2250 C.3     9  LEU9        0.0001
      9  N         -8.4880   11.3220   55.4320 N.3    11  GLY11      -0.1210
     10  CA        -9.3600   12.4630   55.5370 C.3    11  GLY11       0.1956
     11  C         -9.2620   13.1840   56.8640 C.2    11  GLY11       0.2612
     12  O         -8.2340   13.1360   57.5460 O.2    11  GLY11      -0.2717
     13  N        -10.3790   13.8120   57.2160 N.am   12  GLY12      -0.1942
     14  CA       -10.5130   14.6690   58.3840 C.3    12  GLY12       0.2014
     15  C        -10.0650   14.2800   59.7660 C.2    12  GLY12       0.2639
     16  O        -10.3550   13.1890   60.2490 O.2    12  GLY12      -0.2714
     17  N         -9.3890   15.2130   60.4270 N.am   13  SER13      -0.1949
     18  CA        -8.8940   14.9840   61.7780 C.3    13  SER13       0.1924
     19  C         -9.5400   15.9780   62.7410 C.2    13  SER13       0.2314
     20  O        -10.2300   16.9220   62.3330 O.2    13  SER13      -0.2863
     21  CB        -7.3760   15.1670   61.8120 C.3    13  SER13       0.2116
     22  OG        -7.0380   16.5170   61.5510 O.3    13  SER13      -0.2180
     23  N         -6.7030   18.1620   67.4670 N.3    16  ARG16      -0.1245
     24  CA        -5.6860   17.8430   68.4590 C.3    16  ARG16       0.1563
     25  C         -4.3030   18.3760   68.0940 C.2    16  ARG16       0.2260
     26  O         -3.5280   18.7540   68.9820 O.2    16  ARG16      -0.2867
     27  CB        -5.6250   16.3140   68.7180 C.3    16  ARG16       0.0307
     28  CG        -6.9340   15.9200   69.4130 C.3    16  ARG16       0.0489
     29  CD        -7.0040   14.4410   69.6980 C.3    16  ARG16       0.2205
     30  NE        -7.0500   13.6960   68.4210 N.pl3  16  ARG16      -0.0865
     31  CZ        -5.8890   13.1550   68.0840 C.cat  16  ARG16       0.5346
     32  NH1       -4.8790   13.4370   68.8930 N.pl3  16  ARG16       0.1354
     33  NH2       -5.7710   12.6050   66.9380 N.pl3  16  ARG16       0.1354
     34  N         -3.2930   16.2290   58.0340 N.3    26  LYS26      -0.1231
     35  CA        -2.4540   15.4530   58.9400 C.3    26  LYS26       0.1693
     36  C         -1.5760   14.4250   58.2150 C.2    26  LYS26       0.2591
     37  O         -0.4010   14.2790   58.5350 O.2    26  LYS26      -0.2718
     38  CB        -3.3330   14.7100   59.9710 C.3    26  LYS26       0.0285
     39  CG        -2.5240   13.8730   60.9750 C.3    26  LYS26       0.0035
     40  CD        -3.4660   13.1310   61.9620 C.3    26  LYS26       0.0206
     41  CE        -2.6960   12.2580   62.9470 C.3    26  LYS26       0.1093
     42  NZ        -3.7200   11.6300   63.8710 N.3    26  LYS26      -0.1314
     43  N         -2.1370   13.7470   57.2200 N.am   27  GLN27      -0.1979
     44  CA        -1.3940   12.6800   56.5610 C.3    27  GLN27       0.1601
     45  C         -0.3600   13.1540   55.5510 C.2    27  GLN27       0.2287
     46  O          0.2950   12.3490   54.8910 O.2    27  GLN27      -0.2864
     47  CB        -2.3740   11.6430   55.9790 C.3    27  GLN27       0.0394
     48  CG        -3.2380   10.9980   57.1070 C.3    27  GLN27       0.0908
     49  CD        -4.4070   11.8620   57.5860 C.2    27  GLN27       0.2608
     50  OE1       -4.8700   11.6880   58.7120 O.2    27  GLN27      -0.2717
     51  NE2       -4.8860   12.7920   56.7480 N.am   27  GLN27      -0.0878
     52  N        -14.3000   12.1090   50.7020 N.3    83  GLN83      -0.1245
     53  CA       -15.2080   11.7440   51.7900 C.3    83  GLN83       0.1566
     54  C        -15.7180   13.1430   52.1370 C.2    83  GLN83       0.2260
     55  O        -15.0180   13.9110   52.7710 O.2    83  GLN83      -0.2867
     56  CB       -14.4910   11.1280   52.9940 C.3    83  GLN83       0.0367
     57  CG       -15.5050   10.7340   54.1070 C.3    83  GLN83       0.0905
     58  CD       -14.8510   10.1020   55.3230 C.2    83  GLN83       0.2608
     59  OE1      -13.8030   10.5580   55.7820 O.2    83  GLN83      -0.2717
     60  NE2      -15.4690    9.0450   55.8530 N.am   83  GLN83      -0.0878
     61  N        -17.0600   13.8760   57.5090 N.3    86  PRO86      -0.2116
     62  CA       -16.2330   12.9880   58.3410 C.3    86  PRO86       0.1372
     63  C        -17.1530   11.9690   59.0560 C.2    86  PRO86       0.2244
     64  O        -17.3730   12.0530   60.2620 O.2    86  PRO86      -0.2868
     65  CB       -15.5690   13.9750   59.2970 C.3    86  PRO86       0.0268
     66  CG       -16.7440   14.9320   59.5880 C.3    86  PRO86       0.0207
     67  CD       -17.3220   15.1670   58.1850 C.3    86  PRO86       0.0892
     68  N        -16.8360    8.6060   59.6950 N.3    88  GLY88      -0.1210
     69  CA       -16.3140    7.4780   60.4520 C.3    88  GLY88       0.1956
     70  C        -15.4910    6.5540   59.5600 C.2    88  GLY88       0.2611
     71  O        -15.6310    6.5500   58.3330 O.2    88  GLY88      -0.2717
     72  N        -14.6460    5.7460   60.1800 N.am   89  ILE89      -0.1979
     73  CA       -13.7700    4.8720   59.4210 C.3    89  ILE89       0.1595
     74  C        -14.5190    3.8630   58.5270 C.2    89  ILE89       0.2287
     75  O        -14.1230    3.6190   57.3840 O.2    89  ILE89      -0.2864
     76  CB       -12.8110    4.1560   60.3920 C.3    89  ILE89       0.0276
     77  CG1      -11.9220    5.2020   61.0860 C.3    89  ILE89       0.0022
     78  CG2      -11.9570    3.1370   59.6320 C.3    89  ILE89       0.0022
     79  CD1      -11.0560    4.6540   62.2480 C.3    89  ILE89       0.0001
     80  N         -5.2580    3.2300   57.9080 N.3   109  LEU109     -0.1245
     81  CA        -5.4820    4.6370   58.1660 C.3   109  LEU109      0.1561
     82  C         -4.2190    5.3750   57.7070 C.2   109  LEU109      0.2260
     83  O         -3.1000    4.9020   57.9420 O.2   109  LEU109     -0.2867
     84  CB        -5.7350    4.8730   59.6520 C.3   109  LEU109      0.0270
     85  CG        -6.9600    4.0750   60.1330 C.3   109  LEU109      0.0019
     86  CD1       -7.2580    4.4160   61.6220 C.3   109  LEU109      0.0001
     87  CD2       -8.1560    4.4060   59.2340 C.3   109  LEU109      0.0001
     88  N         -2.7080    7.8120   58.8240 N.3   111  ASP111     -0.1225
     89  CA        -1.8100    8.3070   59.8610 C.3   111  ASP111      0.1805
     90  C         -1.1360    7.1870   60.6540 C.2   111  ASP111      0.2597
     91  O         -0.5030    7.4570   61.6530 O.2   111  ASP111     -0.2718
     92  CB        -2.5510    9.2610   60.8330 C.3   111  ASP111      0.1424
     93  CG        -3.6960    8.5750   61.5980 C.2   111  ASP111      0.3668
     94  OD1       -3.8880    7.3520   61.4600 O.co2 111  ASP111     -0.2456
     95  OD2       -4.4050    9.2840   62.3370 O.co2 111  ASP111     -0.2456
     96  N         -1.2260    5.9360   60.1960 N.am  112  ASN112     -0.1974
     97  CA        -0.6200    4.8430   60.9570 C.3   112  ASN112      0.1688
     98  C          0.7710    4.4660   60.4650 C.2   112  ASN112      0.2292
     99  O          0.9420    4.1060   59.3040 O.2   112  ASN112     -0.2864
    100  CB        -1.5300    3.6140   60.9100 C.3   112  ASN112      0.1181
    101  CG        -2.5150    3.5840   62.0680 C.2   112  ASN112      0.2629
    102  OD1       -2.6300    2.5690   62.7560 O.2   112  ASN112     -0.2716
    103  ND2       -3.2180    4.6930   62.3020 N.am  112  ASN112     -0.0877
    104  N        -21.4940    8.5360   69.1010 N.3   195  ARG195     -0.1245
    105  CA       -20.7400    9.7470   68.7850 C.3   195  ARG195      0.1563
    106  C        -20.9930   10.1630   67.3340 C.2   195  ARG195      0.2260
    107  O        -20.3050   11.0150   66.7840 O.2   195  ARG195     -0.2867
    108  CB       -19.2340    9.5770   69.0470 C.3   195  ARG195      0.0307
    109  CG       -18.4800    8.6750   68.0770 C.3   195  ARG195      0.0489
    110  CD       -16.9550    8.8060   68.2760 C.3   195  ARG195      0.2205
    111  NE       -16.2140    7.8080   67.4980 N.pl3 195  ARG195     -0.0865
    112  CZ       -14.8860    7.7070   67.4450 C.cat 195  ARG195      0.5346
    113  NH1      -14.1190    8.5510   68.1280 N.pl3 195  ARG195      0.1354
    114  NH2      -14.3220    6.7510   66.7120 N.pl3 195  ARG195      0.1354
    115  N        -20.7550    8.3420   64.4390 N.3   197  GLU197     -0.1245
    116  CA       -19.8480    7.8050   63.4350 C.3   197  GLU197      0.1567
    117  C        -20.1130    6.3470   63.0890 C.2   197  GLU197      0.2260
    118  O        -20.6320    5.5960   63.9060 O.2   197  GLU197     -0.2867
    119  CB       -18.4210    7.9670   63.9240 C.3   197  GLU197      0.0388
    120  CG       -17.9830    9.4210   63.9480 C.3   197  GLU197      0.1160
    121  CD       -16.5270    9.5530   64.2860 C.2   197  GLU197      0.3649
    122  OE1      -15.7620    8.6080   63.9850 O.co2 197  GLU197     -0.2457
    123  OE2      -16.1360   10.6010   64.8310 O.co2 197  GLU197     -0.2457
    124  N         -0.3110   11.2630   66.6210 N.3   228  GLY228     -0.1225
    125  CA        -1.4330   12.0750   67.0660 C.3   228  GLY228      0.1811
    126  C         -1.1860   13.2300   68.0320 C.2   228  GLY228      0.2280
    127  O         -2.1320   13.9660   68.3640 O.2   228  GLY228     -0.2866
@<TRIPOS>BOND
     1    52    53    1
     2    53    54    1
     3    53    56    1
     4    54    55    2
     5    56    57    1
     6    57    58    1
     7     1     2    1
     8     2     3    1
     9     2     5    1
    10    46    45    2
    11     7     6    1
    12     3     4    2
    13    58    59    2
    14    58    60   am
    15     9    10    1
    16    10    11    1
    17    45    44    1
    18     5     6    1
    19    47    44    1
    20    47    48    1
    21     6     8    1
    22    44    43    1
    23    51    49   am
    24    11    13   am
    25    11    12    2
    26    48    49    1
    27    13    14    1
    28    43    36   am
    29    75    74    2
    30    61    67    1
    31    61    62    1
    32    49    50    2
    33    82    83    2
    34    82    81    1
    35    80    81    1
    36    34    35    1
    37    81    84    1
    38    67    66    1
    39    36    37    2
    40    36    35    1
    41    71    70    2
    42    62    63    1
    43    62    65    1
    44    14    15    1
    45    74    73    1
    46    88    89    1
    47    35    38    1
    48    63    64    2
    49    87    85    1
    50    65    66    1
    51    99    98    2
    52    73    72    1
    53    73    76    1
    54    70    72   am
    55    70    69    1
    56    78    76    1
    57    84    85    1
    58    68    69    1
    59    15    16    2
    60    15    17   am
    61    89    90    1
    62    89    92    1
    63    38    39    1
    64    85    86    1
    65    96    90   am
    66    96    97    1
    67    76    77    1
    68    17    18    1
    69    98    97    1
    70    90    91    2
    71    92    93    1
    72   100    97    1
    73   100   101    1
    74    39    40    1
    75    77    79    1
    76    94    93   ar
    77    22    21    1
    78    93    95   ar
    79    18    21    1
    80    18    19    1
    81    40    41    1
    82   101   103   am
    83   101   102    2
    84    20    19    2
    85    41    42    1
    86   117   116    1
    87   117   118    2
    88   116   119    1
    89   116   115    1
    90   119   120    1
    91   120   121    1
    92   122   121   ar
    93   121   123   ar
    94   124   125    1
    95   114   112    1
    96   107   106    2
    97    33    31    1
    98   125   126    1
    99   106   105    1
   100   112   111    2
   101   112   113    1
   102    23    24    1
   103   111   110    1
   104   126   127    2
   105   109   110    1
   106   109   108    1
   107    31    30    2
   108    31    32    1
   109    25    24    1
   110    25    26    2
   111    30    29    1
   112    24    27    1
   113    27    28    1
   114   105   108    1
   115   105   104    1
   116    28    29    1
