@<TRIPOS>MOLECULE
tmp/1lw4D00.pdb
 137 124 0 0 0
SMALL
GASTEIGER

@<TRIPOS>ATOM
      1  N         41.2960   62.0950   -2.1670 N.3     5  SER5       -0.1217
      2  CA        41.4210   60.8010   -1.5110 C.3     5  SER5        0.1889
      3  C         40.1550   59.9940   -1.7210 C.2     5  SER5        0.2288
      4  O         39.1450   60.5290   -2.1750 O.2     5  SER5       -0.2866
      5  CB        41.6290   61.0160   -0.0080 C.3     5  SER5        0.2089
      6  OG        41.6860   59.7890    0.6950 O.3     5  SER5       -0.2183
      7  N         38.7570   58.6460    0.7790 N.3     7  THR7       -0.1218
      8  CA        38.0620   58.7660    2.0620 C.3     7  THR7        0.1862
      9  C         36.7930   59.6140    1.9260 C.2     7  THR7        0.2287
     10  O         35.9020   59.5580    2.7800 O.2     7  THR7       -0.2866
     11  CB        38.9550   59.4240    3.1430 C.3     7  THR7        0.1770
     12  OG1       39.3250   60.7440    2.7220 O.3     7  THR7       -0.2211
     13  CG2       40.2050   58.5960    3.3850 C.3     7  THR7        0.0375
     14  N         38.3510   53.9420   13.1430 N.3    54  SER54      -0.1202
     15  CA        39.2520   54.4470   12.1050 C.3    54  SER54       0.2020
     16  C         40.4000   53.4840   11.8570 C.2    54  SER54       0.2619
     17  O         40.6930   52.6330   12.6960 O.2    54  SER54      -0.2717
     18  CB        39.8350   55.8010   12.5210 C.3    54  SER54       0.2103
     19  OG        40.7690   55.6480   13.5770 O.3    54  SER54      -0.2182
     20  N         41.0490   53.6320   10.7050 N.am   55  GLY55      -0.1942
     21  CA        42.1760   52.7810   10.3740 C.3    55  GLY55       0.2014
     22  C         43.3220   53.0840   11.3170 C.2    55  GLY55       0.2639
     23  O         44.1230   52.2090   11.6430 O.2    55  GLY55      -0.2714
     24  N         43.4100   54.3390   11.7500 N.am   56  THR56      -0.1950
     25  CA        44.4580   54.7320   12.6740 C.3    56  THR56       0.1897
     26  C         44.2830   53.9130   13.9480 C.2    56  THR56       0.2313
     27  O         45.2400   53.3140   14.4330 O.2    56  THR56      -0.2863
     28  CB        44.4060   56.2520   12.9850 C.3    56  THR56       0.1794
     29  OG1       44.7780   56.9830   11.8090 O.3    56  THR56      -0.2208
     30  CG2       45.3760   56.6180   14.1100 C.3    56  THR56       0.0378
     31  N         45.3620   50.2350   13.4290 N.3    58  ASN58      -0.1240
     32  CA        46.7980   50.0080   13.5060 C.3    58  ASN58       0.1653
     33  C         47.3110   50.1420   14.9360 C.2    58  ASN58       0.2266
     34  O         48.1010   49.3210   15.4010 O.2    58  ASN58      -0.2867
     35  CB        47.5800   51.0020   12.6330 C.3    58  ASN58       0.1155
     36  CG        47.4580   50.7190   11.1460 C.2    58  ASN58       0.2627
     37  OD1       47.3340   49.5670   10.7190 O.2    58  ASN58      -0.2716
     38  ND2       47.5250   51.7770   10.3410 N.am   58  ASN58      -0.0877
     39  N         52.3210   54.7800    6.3970 N.3    78  HIS78      -0.1241
     40  CA        51.3370   55.6250    7.0660 C.3    78  HIS78       0.1621
     41  C         51.5010   55.6690    8.5840 C.2    78  HIS78       0.2264
     42  O         51.3890   56.7330    9.2010 O.2    78  HIS78      -0.2867
     43  CB        49.9230   55.1500    6.7150 C.3    78  HIS78       0.0745
     44  CG        48.8630   56.1530    7.0370 C.ar   78  HIS78       0.0817
     45  ND1       48.3030   56.2730    8.2910 N.ar   78  HIS78      -0.2268
     46  CD2       48.3020   57.1240    6.2780 C.ar   78  HIS78       0.1154
     47  CE1       47.4420   57.2750    8.2890 C.ar   78  HIS78       0.1986
     48  NE2       47.4220   57.8070    7.0800 N.ar   78  HIS78      -0.2212
     49  N         51.8440   59.4570    9.1440 N.3    82  TYR82      -0.1241
     50  CA        50.5330   60.0790    9.3050 C.3    82  TYR82       0.1605
     51  C         49.7010   59.6950   10.5110 C.2    82  TYR82       0.2264
     52  O         48.5020   59.9710   10.5380 O.2    82  TYR82      -0.2867
     53  CB        49.7010   59.8190    8.0500 C.3    82  TYR82       0.0534
     54  CG        50.0730   60.6690    6.8610 C.ar   82  TYR82      -0.0201
     55  CD1       49.2600   61.7310    6.4670 C.ar   82  TYR82      -0.0009
     56  CD2       51.2210   60.4020    6.1160 C.ar   82  TYR82      -0.0009
     57  CE1       49.5760   62.5090    5.3570 C.ar   82  TYR82       0.0417
     58  CE2       51.5500   61.1780    5.0000 C.ar   82  TYR82       0.0417
     59  CZ        50.7190   62.2280    4.6290 C.ar   82  TYR82       0.1957
     60  OH        51.0210   63.0010    3.5300 O.3    82  TYR82      -0.2866
     61  N         52.5030   47.4860    4.7240 N.3   127  GLU127     -0.1245
     62  CA        51.3710   48.2520    4.2110 C.3   127  GLU127      0.1567
     63  C         51.0490   47.7670    2.8010 C.2   127  GLU127      0.2260
     64  O         51.8510   47.9750    1.8980 O.2   127  GLU127     -0.2867
     65  CB        51.7580   49.7380    4.1890 C.3   127  GLU127      0.0388
     66  CG        50.6340   50.7140    3.8550 C.3   127  GLU127      0.1160
     67  CD        51.1020   52.1660    3.9270 C.2   127  GLU127      0.3649
     68  OE1       51.5260   52.6040    5.0170 O.co2 127  GLU127     -0.2457
     69  OE2       51.0520   52.8660    2.8920 O.co2 127  GLU127     -0.2457
     70  N         49.3600   47.9790   -0.6700 N.3   129  THR129     -0.1218
     71  CA        48.9680   48.9880   -1.6220 C.3   129  THR129      0.1862
     72  C         49.5260   49.9880   -0.6320 C.2   129  THR129      0.2287
     73  O         48.9550   50.2870    0.4290 O.2   129  THR129     -0.2866
     74  CB        47.4620   49.2180   -1.9250 C.3   129  THR129      0.1770
     75  OG1       47.0450   50.4740   -1.3770 O.3   129  THR129     -0.2211
     76  CG2       46.6190   48.0710   -1.4590 C.3   129  THR129      0.0375
     77  N         50.5420   53.4220    0.1850 N.3   131  ASN131     -0.1240
     78  CA        49.9730   54.7040   -0.1960 C.3   131  ASN131      0.1653
     79  C         50.9500   55.6890   -0.8210 C.2   131  ASN131      0.2266
     80  O         50.8000   56.0640   -1.9840 O.2   131  ASN131     -0.2867
     81  CB        49.2890   55.3260    1.0310 C.3   131  ASN131      0.1155
     82  CG        48.6930   56.7000    0.7500 C.2   131  ASN131      0.2627
     83  OD1       48.4620   57.0740   -0.3970 O.2   131  ASN131     -0.2716
     84  ND2       48.4270   57.4490    1.8110 N.am  131  ASN131     -0.0877
     85  N         49.0330   46.5290    7.3790 N.3   160  ASP160     -0.1239
     86  CA        48.1730   47.6950    7.3620 C.3   160  ASP160      0.1674
     87  C         47.5230   47.5470    5.9870 C.2   160  ASP160      0.2266
     88  O         48.0830   47.9720    4.9760 O.2   160  ASP160     -0.2867
     89  CB        48.9760   48.9980    7.4190 C.3   160  ASP160      0.1410
     90  CG        48.0960   50.2270    7.2530 C.2   160  ASP160      0.3668
     91  OD1       46.9330   50.0650    6.8340 O.co2 160  ASP160     -0.2456
     92  OD2       48.5630   51.3520    7.5270 O.co2 160  ASP160     -0.2456
     93  N         44.7680   48.9450    4.7730 N.3   162  ALA162     -0.1231
     94  CA        43.7610   49.9790    4.5820 C.3   162  ALA162      0.1694
     95  C         43.1080   49.8060    3.2080 C.2   162  ALA162      0.2591
     96  O         41.8870   49.9170    3.0660 O.2   162  ALA162     -0.2718
     97  CB        44.4080   51.3540    4.6890 C.3   162  ALA162      0.0304
     98  N         43.9280   49.5250    2.2000 N.am  163  ARG163     -0.1980
     99  CA        43.4320   49.3280    0.8420 C.3   163  ARG163      0.1597
    100  C         43.8130   47.9370    0.3400 C.2   163  ARG163      0.2287
    101  O         44.2010   47.7630   -0.8080 O.2   163  ARG163     -0.2864
    102  CB        44.0010   50.4150   -0.0820 C.3   163  ARG163      0.0334
    103  CG        43.6010   51.8300    0.3480 C.3   163  ARG163      0.0492
    104  CD        43.9340   52.8860   -0.7020 C.3   163  ARG163      0.2205
    105  NE        43.5560   54.2260   -0.2510 N.pl3 163  ARG163     -0.0865
    106  CZ        44.2060   54.9170    0.6820 C.cat 163  ARG163      0.5346
    107  NH1       45.2820   54.4060    1.2670 N.pl3 163  ARG163      0.1354
    108  NH2       43.7670   56.1100    1.0510 N.pl3 163  ARG163      0.1354
    109  N         40.2640   49.0480    5.8700 N.3   187  CYS187     -0.1235
    110  CA        39.2670   50.1130    5.9440 C.3   187  CYS187      0.1677
    111  C         37.9920   49.8400    5.1580 C.2   187  CYS187      0.2270
    112  O         38.0140   49.2340    4.0880 O.2   187  CYS187     -0.2867
    113  CB        39.8620   51.4390    5.4480 C.3   187  CYS187      0.0956
    114  SG        41.1900   52.1310    6.4730 S.3   187  CYS187     -0.0801
    115  N         35.8020   52.5630    5.0880 N.3   189  SER189     -0.1217
    116  CA        35.4710   53.9510    4.7650 C.3   189  SER189      0.1889
    117  C         36.1920   54.6400    3.6160 C.2   189  SER189      0.2288
    118  O         36.0610   55.8500    3.4470 O.2   189  SER189     -0.2866
    119  CB        35.6410   54.8090    6.0180 C.3   189  SER189      0.2089
    120  OG        36.9850   54.7520    6.4660 O.3   189  SER189     -0.2183
    121  N         36.7980   50.7190   10.2930 N.3   197  SER197     -0.1217
    122  CA        37.7940   49.7990    9.7780 C.3   197  SER197      0.1889
    123  C         37.6370   48.5460   10.6250 C.2   197  SER197      0.2288
    124  O         36.8790   48.5370   11.6000 O.2   197  SER197     -0.2866
    125  CB        39.1980   50.3840    9.9540 C.3   197  SER197      0.2089
    126  OG        39.3030   51.6380    9.3050 O.3   197  SER197     -0.2183
    127  N         49.1700   63.8720   -5.4190 N.3   302  ARG302     -0.1245
    128  CA        48.5330   62.5660   -5.4680 C.3   302  ARG302      0.1563
    129  C         47.0950   62.7230   -5.9520 C.2   302  ARG302      0.2260
    130  O         46.3530   63.5750   -5.4580 O.2   302  ARG302     -0.2867
    131  CB        48.5390   61.9200   -4.0760 C.3   302  ARG302      0.0307
    132  CG        47.9140   60.5320   -4.0410 C.3   302  ARG302      0.0489
    133  CD        47.7460   59.9960   -2.6220 C.3   302  ARG302      0.2205
    134  NE        46.7160   60.7050   -1.8660 N.pl3 302  ARG302     -0.0865
    135  CZ        46.1470   60.2270   -0.7620 C.cat 302  ARG302      0.5346
    136  NH1       46.5080   59.0410   -0.2900 N.pl3 302  ARG302      0.1354
    137  NH2       45.2150   60.9300   -0.1300 N.pl3 302  ARG302      0.1354
@<TRIPOS>BOND
     1   129   128    1
     2   129   130    2
     3   128   127    1
     4   128   131    1
     5   131   132    1
     6   132   133    1
     7   133   134    1
     8     4     3    2
     9     1     2    1
    10    80    79    2
    11    74    71    1
    12    74    76    1
    13    74    75    1
    14   134   135    2
    15     3     2    1
    16    71    70    1
    17    71    72    1
    18     2     5    1
    19    79    78    1
    20   101   100    2
    21   135   136    1
    22   135   137    1
    23   104   105    1
    24   104   103    1
    25    72    73    2
    26    83    82    2
    27   105   106    2
    28    78    77    1
    29    78    81    1
    30   102   103    1
    31   102    99    1
    32     5     6    1
    33   100    99    1
    34   106   108    1
    35   106   107    1
    36    82    81    1
    37    82    84   am
    38     7     8    1
    39    99    98    1
    40    64    63    2
    41     9     8    1
    42     9    10    2
    43     8    11    1
    44    98    95   am
    45    12    11    1
    46    63    62    1
    47    69    67   ar
    48    96    95    2
    49    11    13    1
    50    95    94    1
    51   118   117    2
    52    60    59    1
    53   117   116    1
    54    66    67    1
    55    66    65    1
    56    67    68   ar
    57   112   111    2
    58    65    62    1
    59    62    61    1
    60    94    97    1
    61    94    93    1
    62    59    58   ar
    63    59    57   ar
    64   116   115    1
    65   116   119    1
    66    88    87    2
    67    58    56   ar
    68   111   110    1
    69    57    55   ar
    70   113   110    1
    71   113   114    1
    72   109   110    1
    73    87    86    1
    74   119   120    1
    75    56    54   ar
    76    46    44   ar
    77    46    48   ar
    78    39    40    1
    79    55    54   ar
    80    43    44    1
    81    43    40    1
    82    91    90   ar
    83    54    53    1
    84    44    45   ar
    85    40    41    1
    86    48    47   ar
    87    90    89    1
    88    90    92   ar
    89    86    85    1
    90    86    89    1
    91    53    50    1
    92    47    45   ar
    93    41    42    2
    94    49    50    1
    95   126   125    1
    96    50    51    1
    97   122   125    1
    98   122   121    1
    99   122   123    1
   100    38    36   am
   101    21    20    1
   102    21    22    1
   103    51    52    2
   104   123   124    2
   105    20    16   am
   106    37    36    2
   107    36    35    1
   108    22    23    2
   109    22    24   am
   110    24    25    1
   111    29    28    1
   112    16    15    1
   113    16    17    2
   114    15    18    1
   115    15    14    1
   116    18    19    1
   117    35    32    1
   118    25    28    1
   119    25    26    1
   120    28    30    1
   121    31    32    1
   122    32    33    1
   123    26    27    2
   124    33    34    2
