@<TRIPOS>MOLECULE
tmp/1lw4B01.pdb
 117 105 0 0 0
SMALL
GASTEIGER

@<TRIPOS>ATOM
      1  N         85.3750   54.0130   26.9760 N.3     7  THR7       -0.1218
      2  CA        84.6130   53.9600   28.2260 C.3     7  THR7        0.1862
      3  C         85.3690   53.1580   29.2790 C.2     7  THR7        0.2287
      4  O         85.1360   53.3160   30.4760 O.2     7  THR7       -0.2866
      5  CB        83.2250   53.2830   28.0460 C.3     7  THR7        0.1770
      6  OG1       83.4040   51.9340   27.5940 O.3     7  THR7       -0.2211
      7  CG2       82.3700   54.0430   27.0430 C.3     7  THR7        0.0375
      8  N         75.1240   59.0320   33.5620 N.3    54  SER54      -0.1202
      9  CA        75.5420   58.5160   32.2670 C.3    54  SER54       0.2020
     10  C         75.1460   59.4420   31.1290 C.2    54  SER54       0.2619
     11  O         74.2880   60.3070   31.2930 O.2    54  SER54      -0.2717
     12  CB        74.8930   57.1520   32.0220 C.3    54  SER54       0.2103
     13  OG        73.4930   57.3030   31.8310 O.3    54  SER54      -0.2182
     14  N         75.7760   59.2400   29.9740 N.am   55  GLY55      -0.1942
     15  CA        75.4690   60.0470   28.8060 C.3    55  GLY55       0.2014
     16  C         74.0660   59.7430   28.3130 C.2    55  GLY55       0.2639
     17  O         73.4050   60.6040   27.7350 O.2    55  GLY55      -0.2714
     18  N         73.6100   58.5110   28.5250 N.am   56  THR56      -0.1950
     19  CA        72.2620   58.1460   28.1120 C.3    56  THR56       0.1897
     20  C         71.2730   59.0000   28.9100 C.2    56  THR56       0.2313
     21  O         70.3570   59.5860   28.3380 O.2    56  THR56      -0.2863
     22  CB        71.9710   56.6440   28.3610 C.3    56  THR56       0.1794
     23  OG1       72.7960   55.8460   27.4980 O.3    56  THR56      -0.2208
     24  CG2       70.5120   56.3250   28.0840 C.3    56  THR56       0.0378
     25  N         71.2540   62.5940   27.6290 N.3    58  ASN58      -0.1240
     26  CA        70.4650   62.7700   26.4110 C.3    58  ASN58       0.1653
     27  C         68.9670   62.6900   26.7030 C.2    58  ASN58       0.2266
     28  O         68.1760   63.5010   26.2110 O.2    58  ASN58      -0.2867
     29  CB        70.8070   61.6820   25.3850 C.3    58  ASN58       0.1155
     30  CG        72.1110   61.9390   24.6540 C.2    58  ASN58       0.2627
     31  OD1       72.7140   61.0130   24.0980 O.2    58  ASN58      -0.2716
     32  ND2       72.5440   63.1920   24.6280 N.am   58  ASN58      -0.0877
     33  N         73.5680   57.7480   18.1220 N.3    78  HIS78      -0.1241
     34  CA        73.4730   56.9510   19.3360 C.3    78  HIS78       0.1621
     35  C         72.0940   56.9820   19.9950 C.2    78  HIS78       0.2264
     36  O         71.6070   55.9590   20.4780 O.2    78  HIS78      -0.2867
     37  CB        74.5480   57.4160   20.3280 C.3    78  HIS78       0.0745
     38  CG        74.7870   56.4570   21.4510 C.ar   78  HIS78       0.0817
     39  ND1       73.9770   56.3930   22.5640 N.ar   78  HIS78      -0.2268
     40  CD2       75.7200   55.4890   21.6090 C.ar   78  HIS78       0.1154
     41  CE1       74.4010   55.4260   23.3590 C.ar   78  HIS78       0.1986
     42  NE2       75.4590   54.8630   22.8020 N.ar   78  HIS78      -0.2212
     43  N         70.1510   53.6780   22.6820 N.3    83  GLU83      -0.1245
     44  CA        69.5970   54.1040   23.9550 C.3    83  GLU83       0.1567
     45  C         68.2800   53.4370   24.3530 C.2    83  GLU83       0.2260
     46  O         67.3610   54.0660   24.8820 O.2    83  GLU83      -0.2867
     47  CB        69.5330   55.6390   24.0040 C.3    83  GLU83       0.0388
     48  CG        70.9510   56.2120   24.1330 C.3    83  GLU83       0.1160
     49  CD        71.0340   57.7290   24.1600 C.2    83  GLU83       0.3649
     50  OE1       70.1090   58.3870   24.6730 O.co2  83  GLU83      -0.2457
     51  OE2       72.0600   58.2610   23.6790 O.co2  83  GLU83      -0.2457
     52  N         75.0680   65.0020   16.7870 N.3   127  GLU127     -0.1245
     53  CA        76.0760   64.2450   17.5240 C.3   127  GLU127      0.1567
     54  C         77.4750   64.6500   17.0610 C.2   127  GLU127      0.2260
     55  O         77.8140   64.4240   15.8980 O.2   127  GLU127     -0.2867
     56  CB        75.8390   62.7570   17.2590 C.3   127  GLU127      0.0388
     57  CG        76.7240   61.8070   18.0340 C.3   127  GLU127      0.1160
     58  CD        76.3690   60.3530   17.7640 C.2   127  GLU127      0.3649
     59  OE1       75.2010   59.9730   17.9910 O.co2 127  GLU127     -0.2457
     60  OE2       77.2590   59.5880   17.3340 O.co2 127  GLU127     -0.2457
     61  N         81.3750   64.2570   16.7480 N.3   129  THR129     -0.1218
     62  CA        82.4040   63.2520   16.6250 C.3   129  THR129      0.1862
     63  C         81.2340   62.2920   16.6460 C.2   129  THR129      0.2287
     64  O         80.6290   61.9950   17.6850 O.2   129  THR129     -0.2866
     65  CB        83.3600   62.9980   17.8150 C.3   129  THR129      0.1770
     66  OG1       82.7590   62.0970   18.7480 O.3   129  THR129     -0.2211
     67  CG2       83.7830   64.2960   18.4550 C.3   129  THR129      0.0375
     68  N         79.8900   58.9350   16.3010 N.3   131  ASN131     -0.1240
     69  CA        80.4630   57.6280   16.5810 C.3   131  ASN131      0.1653
     70  C         80.4450   56.6420   15.4210 C.2   131  ASN131      0.2266
     71  O         81.4990   56.2350   14.9300 O.2   131  ASN131     -0.2867
     72  CB        79.7600   57.0050   17.7950 C.3   131  ASN131      0.1155
     73  CG        80.1670   55.5540   18.0320 C.2   131  ASN131      0.2627
     74  OD1       81.3510   55.2230   18.0530 O.2   131  ASN131     -0.2716
     75  ND2       79.1790   54.6850   18.2170 N.am  131  ASN131     -0.0877
     76  N         74.5730   66.1280   21.1120 N.3   160  ASP160     -0.1239
     77  CA        75.0070   64.9750   21.8800 C.3   160  ASP160      0.1674
     78  C         76.5160   65.0970   21.7530 C.2   160  ASP160      0.2266
     79  O         77.1020   64.6520   20.7670 O.2   160  ASP160     -0.2867
     80  CB        74.5400   63.6610   21.2450 C.3   160  ASP160      0.1410
     81  CG        75.0860   62.4390   21.9740 C.2   160  ASP160      0.3668
     82  OD1       76.0780   62.5860   22.7200 O.co2 160  ASP160     -0.2456
     83  OD2       74.5340   61.3340   21.7940 O.co2 160  ASP160     -0.2456
     84  N         78.9590   63.6980   23.5900 N.3   162  ALA162     -0.1231
     85  CA        79.6560   62.7090   24.4010 C.3   162  ALA162      0.1694
     86  C         81.1620   62.8400   24.2040 C.2   162  ALA162      0.2591
     87  O         81.9250   62.7600   25.1600 O.2   162  ALA162     -0.2718
     88  CB        79.2020   61.3110   24.0280 C.3   162  ALA162      0.0304
     89  N         81.5870   63.0440   22.9620 N.am  163  ARG163     -0.1980
     90  CA        83.0080   63.1930   22.6620 C.3   163  ARG163      0.1597
     91  C         83.2700   64.5520   22.0140 C.2   163  ARG163      0.2287
     92  O         84.0630   64.6700   21.0860 O.2   163  ARG163     -0.2864
     93  CB        83.4710   62.0700   21.7280 C.3   163  ARG163      0.0334
     94  CG        83.2600   60.6730   22.3010 C.3   163  ARG163      0.0492
     95  CD        83.9570   59.6060   21.4660 C.3   163  ARG163      0.2205
     96  NE        83.8460   58.2880   22.0930 N.pl3 163  ARG163     -0.0865
     97  CZ        82.7540   57.5370   22.0650 C.cat 163  ARG163      0.5346
     98  NH1       81.6700   57.9630   21.4340 N.pl3 163  ARG163      0.1354
     99  NH2       82.7410   56.3600   22.6750 N.pl3 163  ARG163      0.1354
    100  N         80.3640   63.7390   27.9550 N.3   187  CYS187     -0.1235
    101  CA        80.7700   62.7080   28.8970 C.3   187  CYS187      0.1677
    102  C         82.0950   62.9980   29.5830 C.2   187  CYS187      0.2270
    103  O         82.9980   63.5970   29.0040 O.2   187  CYS187     -0.2867
    104  CB        80.8640   61.3490   28.1880 C.3   187  CYS187      0.0956
    105  SG        79.2710   60.6500   27.6760 S.3   187  CYS187     -0.0801
    106  N         83.2920   60.3290   31.5210 N.3   189  SER189     -0.1217
    107  CA        83.7310   58.9490   31.6790 C.3   189  SER189      0.1889
    108  C         84.3120   58.2100   30.4820 C.2   189  SER189      0.2288
    109  O         84.5120   56.9970   30.5430 O.2   189  SER189     -0.2866
    110  CB        82.5800   58.1250   32.2550 C.3   189  SER189      0.2089
    111  OG        81.4680   58.1630   31.3770 O.3   189  SER189     -0.2183
    112  N         78.3640   62.2460   33.3100 N.3   197  SER197     -0.1217
    113  CA        78.3390   63.1640   32.1900 C.3   197  SER197      0.1889
    114  C         77.6930   64.4310   32.7210 C.2   197  SER197      0.2288
    115  O         77.2380   64.4680   33.8660 O.2   197  SER197     -0.2866
    116  CB        77.4950   62.5760   31.0600 C.3   197  SER197      0.2089
    117  OG        77.9670   61.2820   30.7170 O.3   197  SER197     -0.2183
@<TRIPOS>BOND
     1    71    70    2
     2    70    69    1
     3    55    54    2
     4    68    69    1
     5    69    72    1
     6    62    63    1
     7    62    61    1
     8    62    65    1
     9    63    64    2
    10    52    53    1
    11    54    53    1
    12    56    53    1
    13    56    57    1
    14    60    58   ar
    15    58    59   ar
    16    58    57    1
    17    72    73    1
    18    65    67    1
    19    65    66    1
    20    73    74    2
    21    73    75   am
    22    33    34    1
    23    34    35    1
    24    34    37    1
    25    35    36    2
    26    37    38    1
    27    79    78    2
    28    92    91    2
    29    76    77    1
    30    80    77    1
    31    80    81    1
    32    98    97    1
    33    38    40   ar
    34    38    39   ar
    35    95    96    1
    36    95    94    1
    37    40    42   ar
    38    93    94    1
    39    93    90    1
    40    78    77    1
    41    83    81   ar
    42    81    82   ar
    43    91    90    1
    44    97    96    2
    45    97    99    1
    46    39    41   ar
    47    90    89    1
    48    43    44    1
    49    42    41   ar
    50    89    86   am
    51    84    85    1
    52    51    49   ar
    53    44    47    1
    54    44    45    1
    55    47    48    1
    56    88    85    1
    57    31    30    2
    58    48    49    1
    59    49    50   ar
    60    86    85    1
    61    86    87    2
    62    45    46    2
    63    32    30   am
    64    30    29    1
    65    29    26    1
    66    28    27    2
    67    26    27    1
    68    26    25    1
    69     1     2    1
    70     7     5    1
    71    23    22    1
    72     6     5    1
    73   105   104    1
    74    17    16    2
    75   100   101    1
    76     5     2    1
    77    24    22    1
    78    19    22    1
    79    19    18    1
    80    19    20    1
    81   104   101    1
    82     2     3    1
    83    16    18   am
    84    16    15    1
    85    21    20    2
    86    15    14    1
    87   101   102    1
    88   103   102    2
    89     3     4    2
    90    14    10   am
    91   108   109    2
    92   108   107    1
    93   117   116    1
    94   116   113    1
    95    10    11    2
    96    10     9    1
    97   111   110    1
    98   106   107    1
    99   107   110    1
   100    13    12    1
   101    12     9    1
   102   113   114    1
   103   113   112    1
   104     9     8    1
   105   114   115    2
