@<TRIPOS>MOLECULE
tmp/1lw5C01.pdb
 146 133 0 0 0
SMALL
GASTEIGER

@<TRIPOS>ATOM
      1  N         67.4310   64.3080   57.4510 N.3     5  SER5       -0.1217
      2  CA        67.3110   62.9370   56.9700 C.3     5  SER5        0.1889
      3  C         68.6110   62.1870   57.2150 C.2     5  SER5        0.2288
      4  O         69.6310   62.7980   57.5110 O.2     5  SER5       -0.2866
      5  CB        67.0070   62.9430   55.4660 C.3     5  SER5        0.2089
      6  OG        66.9800   61.6300   54.9380 O.3     5  SER5       -0.2183
      7  N         70.0220   60.6700   54.9310 N.3     7  THR7       -0.1218
      8  CA        70.6970   60.7010   53.6360 C.3     7  THR7        0.1862
      9  C         71.9250   61.5950   53.6920 C.2     7  THR7        0.2287
     10  O         72.8450   61.4470   52.8870 O.2     7  THR7       -0.2866
     11  CB        69.7720   61.2400   52.5170 C.3     7  THR7        0.1770
     12  OG1       69.3660   62.5790   52.8320 O.3     7  THR7       -0.2211
     13  CG2       68.5420   60.3590   52.3650 C.3     7  THR7        0.0375
     14  N         70.2830   55.3700   42.9050 N.3    54  SER54      -0.1202
     15  CA        69.3820   55.8760   43.9340 C.3    54  SER54       0.2020
     16  C         68.2730   54.8940   44.2590 C.2    54  SER54       0.2619
     17  O         68.0220   53.9580   43.5050 O.2    54  SER54      -0.2717
     18  CB        68.7480   57.1930   43.4830 C.3    54  SER54       0.2103
     19  OG        67.8570   56.9670   42.3990 O.3    54  SER54      -0.2182
     20  N         67.6090   55.1250   45.3880 N.am   55  GLY55      -0.1942
     21  CA        66.5140   54.2660   45.7940 C.3    55  GLY55       0.2014
     22  C         65.3330   54.4780   44.8680 C.2    55  GLY55       0.2639
     23  O         64.5570   53.5510   44.6090 O.2    55  GLY55      -0.2714
     24  N         65.1900   55.7040   44.3710 N.am   56  THR56      -0.1950
     25  CA        64.0980   56.0140   43.4570 C.3    56  THR56       0.1897
     26  C         64.2440   55.1600   42.2030 C.2    56  THR56       0.2313
     27  O         63.2700   54.5890   41.7270 O.2    56  THR56      -0.2863
     28  CB        64.0750   57.5220   43.0680 C.3    56  THR56       0.1794
     29  OG1       63.7380   58.3090   44.2190 O.3    56  THR56      -0.2208
     30  CG2       63.0310   57.7850   41.9900 C.3    56  THR56       0.0378
     31  N         63.2880   51.5460   43.0280 N.3    58  ASN58      -0.1240
     32  CA        61.8560   51.2870   43.0250 C.3    58  ASN58       0.1653
     33  C         61.3020   51.2700   41.6030 C.2    58  ASN58       0.2266
     34  O         60.5360   50.3770   41.2380 O.2    58  ASN58      -0.2867
     35  CB        61.1140   52.3590   43.8390 C.3    58  ASN58       0.1155
     36  CG        61.1230   52.0870   45.3360 C.2    58  ASN58       0.2627
     37  OD1       60.9310   53.0030   46.1480 O.2    58  ASN58      -0.2716
     38  ND2       61.3250   50.8320   45.7110 N.am   58  ASN58      -0.0877
     39  N         56.3270   56.2660   49.8500 N.3    78  HIS78      -0.1241
     40  CA        57.2730   57.1000   49.1180 C.3    78  HIS78       0.1621
     41  C         57.1170   57.0250   47.5960 C.2    78  HIS78       0.2264
     42  O         57.2360   58.0420   46.9040 O.2    78  HIS78      -0.2867
     43  CB        58.7060   56.7110   49.5230 C.3    78  HIS78       0.0745
     44  CG        59.7500   57.6830   49.0640 C.ar   78  HIS78       0.0817
     45  ND1       60.2390   57.6980   47.7760 N.ar   78  HIS78      -0.2268
     46  CD2       60.3700   58.6950   49.7140 C.ar   78  HIS78       0.1154
     47  CE1       61.1150   58.6780   47.6520 C.ar   78  HIS78       0.1986
     48  NE2       61.2150   59.2980   48.8130 N.ar   78  HIS78      -0.2212
     49  N         56.7470   60.7950   46.9260 N.3    82  TYR82      -0.1227
     50  CA        58.0390   61.4120   46.6590 C.3    82  TYR82       0.1736
     51  C         58.8350   60.9540   45.4530 C.2    82  TYR82       0.2595
     52  O         60.0250   61.2420   45.3650 O.2    82  TYR82      -0.2718
     53  CB        58.9300   61.2890   47.9010 C.3    82  TYR82       0.0548
     54  CG        58.5170   62.1630   49.0670 C.ar   82  TYR82      -0.0200
     55  CD1       57.4880   61.7820   49.9260 C.ar   82  TYR82      -0.0009
     56  CD2       59.1610   63.3760   49.3100 C.ar   82  TYR82      -0.0009
     57  CE1       57.1120   62.5900   51.0070 C.ar   82  TYR82       0.0417
     58  CE2       58.7960   64.1920   50.3820 C.ar   82  TYR82       0.0417
     59  CZ        57.7730   63.7930   51.2260 C.ar   82  TYR82       0.1957
     60  OH        57.4250   64.5890   52.2950 O.3    82  TYR82      -0.2866
     61  N         58.2070   60.2570   44.5180 N.am   83  GLU83      -0.1979
     62  CA        58.9470   59.8080   43.3530 C.3    83  GLU83       0.1602
     63  C         58.4960   60.4150   42.0330 C.2    83  GLU83       0.2287
     64  O         58.4540   59.7510   40.9950 O.2    83  GLU83      -0.2864
     65  CB        58.9720   58.2790   43.3190 C.3    83  GLU83       0.0415
     66  CG        59.9470   57.7470   44.3610 C.3    83  GLU83       0.1163
     67  CD        59.9930   56.2380   44.4540 C.2    83  GLU83       0.3649
     68  OE1       59.7700   55.5650   43.4290 O.co2  83  GLU83      -0.2457
     69  OE2       60.2770   55.7280   45.5570 O.co2  83  GLU83      -0.2457
     70  N         56.2650   49.1430   52.0460 N.3   127  GLU127     -0.1245
     71  CA        57.4190   49.9160   52.4690 C.3   127  GLU127      0.1567
     72  C         57.7870   49.5330   53.9050 C.2   127  GLU127      0.2260
     73  O         57.0210   49.8210   54.8230 O.2   127  GLU127     -0.2867
     74  CB        57.0600   51.4050   52.3840 C.3   127  GLU127      0.0388
     75  CG        58.1960   52.3720   52.6410 C.3   127  GLU127      0.1160
     76  CD        57.7360   53.8170   52.5490 C.2   127  GLU127      0.3649
     77  OE1       57.1390   54.1850   51.5130 O.co2 127  GLU127     -0.2457
     78  OE2       57.9670   54.5800   53.5110 O.co2 127  GLU127     -0.2457
     79  N         59.5570   50.0780   57.1890 N.3   129  THR129     -0.1218
     80  CA        59.8760   51.1390   58.1300 C.3   129  THR129      0.1862
     81  C         59.2840   52.0770   57.1200 C.2   129  THR129      0.2287
     82  O         59.8450   52.3380   56.0530 O.2   129  THR129     -0.2866
     83  CB        61.3520   51.5490   58.4250 C.3   129  THR129      0.1770
     84  OG1       61.9740   52.0790   57.2560 O.3   129  THR129     -0.2211
     85  CG2       62.1240   50.4070   59.0310 C.3   129  THR129      0.0375
     86  N         58.2450   55.4530   56.0500 N.3   131  ASN131     -0.1240
     87  CA        58.7870   56.7790   56.2890 C.3   131  ASN131      0.1653
     88  C         57.7670   57.7510   56.8660 C.2   131  ASN131      0.2266
     89  O         57.8530   58.1250   58.0330 O.2   131  ASN131     -0.2867
     90  CB        59.3820   57.3200   54.9760 C.3   131  ASN131      0.1155
     91  CG        59.9030   58.7490   55.0940 C.2   131  ASN131      0.2627
     92  OD1       60.0870   59.2750   56.1900 O.2   131  ASN131     -0.2716
     93  ND2       60.1630   59.3740   53.9490 N.am  131  ASN131     -0.0877
     94  N         59.7610   48.0120   49.4390 N.3   160  ASP160     -0.1239
     95  CA        60.6130   49.1880   49.3730 C.3   160  ASP160      0.1674
     96  C         61.3360   49.1250   50.7180 C.2   160  ASP160      0.2266
     97  O         60.8310   49.6080   51.7340 O.2   160  ASP160     -0.2867
     98  CB        59.7720   50.4670   49.2790 C.3   160  ASP160      0.1410
     99  CG        60.6140   51.7310   49.3810 C.2   160  ASP160      0.3668
    100  OD1       61.7170   51.6790   49.9660 O.co2 160  ASP160     -0.2456
    101  OD2       60.1610   52.7840   48.8890 O.co2 160  ASP160     -0.2456
    102  N         64.0770   50.6430   51.6990 N.3   162  ALA162     -0.1231
    103  CA        65.0580   51.7140   51.8360 C.3   162  ALA162      0.1694
    104  C         65.6910   51.6410   53.2240 C.2   162  ALA162      0.2591
    105  O         66.9050   51.7960   53.3730 O.2   162  ALA162     -0.2718
    106  CB        64.3910   53.0690   51.6350 C.3   162  ALA162      0.0304
    107  N         64.8630   51.4040   54.2390 N.am  163  ARG163     -0.1980
    108  CA        65.3560   51.2980   55.6080 C.3   163  ARG163      0.1597
    109  C         64.9860   49.9330   56.2020 C.2   163  ARG163      0.2287
    110  O         64.5660   49.8390   57.3500 O.2   163  ARG163     -0.2864
    111  CB        64.7770   52.4310   56.4700 C.3   163  ARG163      0.0334
    112  CG        65.0300   53.8190   55.8930 C.3   163  ARG163      0.0492
    113  CD        64.7640   54.9310   56.9040 C.3   163  ARG163      0.2205
    114  NE        65.2060   56.2230   56.3800 N.pl3 163  ARG163     -0.0865
    115  CZ        64.6190   56.8740   55.3770 C.cat 163  ARG163      0.5346
    116  NH1       63.5490   56.3710   54.7770 N.pl3 163  ARG163      0.1354
    117  NH2       65.1180   58.0270   54.9550 N.pl3 163  ARG163      0.1354
    118  N         68.5360   50.7570   50.5790 N.3   187  CYS187     -0.1235
    119  CA        69.5180   51.8140   50.3750 C.3   187  CYS187      0.1677
    120  C         70.8060   51.6410   51.1530 C.2   187  CYS187      0.2270
    121  O         70.8260   51.1160   52.2710 O.2   187  CYS187     -0.2867
    122  CB        68.9100   53.1800   50.7210 C.3   187  CYS187      0.0956
    123  SG        67.4450   53.6020   49.7600 S.3   187  CYS187     -0.0801
    124  N         72.8900   54.4340   50.9350 N.3   189  SER189     -0.1217
    125  CA        73.1250   55.8660   51.1360 C.3   189  SER189      0.1889
    126  C         72.4060   56.5890   52.2740 C.2   189  SER189      0.2288
    127  O         72.5100   57.8140   52.3910 O.2   189  SER189     -0.2866
    128  CB        72.8250   56.6070   49.8310 C.3   189  SER189      0.2089
    129  OG        71.4830   56.3830   49.4340 O.3   189  SER189     -0.2183
    130  N         71.7680   52.3570   46.0030 N.3   197  SER197     -0.1217
    131  CA        70.8670   51.4010   46.6030 C.3   197  SER197      0.1889
    132  C         71.0490   50.1360   45.7850 C.2   197  SER197      0.2288
    133  O         71.7640   50.1370   44.7780 O.2   197  SER197     -0.2866
    134  CB        69.4270   51.9030   46.5020 C.3   197  SER197      0.2089
    135  OG        69.2620   53.0800   47.2750 O.3   197  SER197     -0.2183
    136  N         59.4730   66.2600   60.5800 N.3   302  ARG302     -0.1245
    137  CA        60.1210   64.9640   60.6950 C.3   302  ARG302      0.1563
    138  C         61.5630   65.1750   61.1470 C.2   302  ARG302      0.2260
    139  O         62.2870   65.9840   60.5710 O.2   302  ARG302     -0.2867
    140  CB        60.1170   64.2370   59.3440 C.3   302  ARG302      0.0307
    141  CG        60.7370   62.8470   59.4060 C.3   302  ARG302      0.0489
    142  CD        60.9360   62.2310   58.0250 C.3   302  ARG302      0.2205
    143  NE        62.0450   62.8520   57.2990 N.pl3 302  ARG302     -0.0865
    144  CZ        62.6130   62.3320   56.2140 C.cat 302  ARG302      0.5346
    145  NH1       62.1780   61.1770   55.7230 N.pl3 302  ARG302      0.1354
    146  NH2       63.6240   62.9590   55.6230 N.pl3 302  ARG302      0.1354
@<TRIPOS>BOND
     1    64    63    2
     2    34    33    2
     3    33    32    1
     4    27    26    2
     5    30    28    1
     6    63    62    1
     7    26    25    1
     8    19    18    1
     9    14    15    1
    10    32    31    1
    11    32    35    1
    12    28    25    1
    13    28    29    1
    14    65    62    1
    15    65    66    1
    16    62    61    1
    17    68    67   ar
    18    25    24    1
    19    18    15    1
    20    17    16    2
    21    35    36    1
    22    15    16    1
    23    16    20   am
    24    66    67    1
    25    24    22   am
    26    67    69   ar
    27    61    51   am
    28    23    22    2
    29   133   132    2
    30    22    21    1
    31    36    38   am
    32    36    37    2
    33    52    51    2
    34    20    21    1
    35    51    50    1
    36   132   131    1
    37   130   131    1
    38   134   131    1
    39   134   135    1
    40    50    49    1
    41    50    53    1
    42    42    41    2
    43    41    40    1
    44    47    45   ar
    45    47    48   ar
    46    45    44   ar
    47    53    54    1
    48    48    46   ar
    49   101    99   ar
    50    44    43    1
    51    44    46   ar
    52    54    56   ar
    53    54    55   ar
    54    40    43    1
    55    40    39    1
    56    98    95    1
    57    98    99    1
    58    56    58   ar
    59    95    94    1
    60    95    96    1
    61    99   100   ar
    62   129   128    1
    63   123   122    1
    64   128   125    1
    65    55    57   ar
    66   119   118    1
    67   119   122    1
    68   119   120    1
    69    58    59   ar
    70    96    97    2
    71   124   125    1
    72    57    59   ar
    73   125   126    1
    74   120   121    2
    75    59    60    1
    76    77    76   ar
    77   106   103    1
    78   102   103    1
    79   103   104    1
    80    70    71    1
    81   126   127    2
    82    13    11    1
    83    74    71    1
    84    74    75    1
    85    71    72    1
    86    11    12    1
    87    11     8    1
    88    76    75    1
    89    76    78   ar
    90    10     9    2
    91   104   105    2
    92   104   107   am
    93     8     9    1
    94     8     7    1
    95    72    73    2
    96    93    91   am
    97   107   108    1
    98   116   115    1
    99     6     5    1
   100   117   115    1
   101    90    91    1
   102    90    87    1
   103    91    92    2
   104   115   114    2
   105     5     2    1
   106   108   109    1
   107   108   111    1
   108   146   144    1
   109   145   144    1
   110   112   111    1
   111   112   113    1
   112    86    87    1
   113    82    81    2
   114   109   110    2
   115   144   143    2
   116    87    88    1
   117   114   113    1
   118    88    89    2
   119     2     3    1
   120     2     1    1
   121    81    80    1
   122    79    80    1
   123     3     4    2
   124    84    83    1
   125   143   142    1
   126   142   141    1
   127    80    83    1
   128    83    85    1
   129   140   141    1
   130   140   137    1
   131   139   138    2
   132   136   137    1
   133   137   138    1
