@<TRIPOS>MOLECULE
tmp/1lwdA00.pdb
 96 86 0 0 0
SMALL
GASTEIGER

@<TRIPOS>ATOM
      1  N         37.3310    8.5840   27.5750 N.3    78  THR78      -0.1218
      2  CA        36.1450    7.8040   27.2390 C.3    78  THR78       0.1862
      3  C         35.4360    8.6870   26.2120 C.2    78  THR78       0.2287
      4  O         34.8250    9.7000   26.5580 O.2    78  THR78      -0.2866
      5  CB        35.2330    7.5670   28.4520 C.3    78  THR78       0.1770
      6  OG1       35.8500    6.6170   29.3300 O.3    78  THR78      -0.2211
      7  CG2       33.8830    7.0200   28.0060 C.3    78  THR78       0.0375
      8  N         33.8280    3.0830   27.5690 N.3    95  SER95      -0.1217
      9  CA        34.8090    3.3090   28.6190 C.3    95  SER95       0.1889
     10  C         35.7430    2.1190   28.8210 C.2    95  SER95       0.2288
     11  O         35.2880    1.0170   29.1370 O.2    95  SER95      -0.2866
     12  CB        34.0890    3.5990   29.9390 C.3    95  SER95       0.2089
     13  OG        34.9520    3.3530   31.0320 O.3    95  SER95      -0.2183
     14  N         37.7710    1.6940   31.2080 N.3    97  ASN97      -0.1240
     15  CA        37.7550    1.3390   32.6210 C.3    97  ASN97       0.1653
     16  C         36.5890    0.3840   32.8580 C.2    97  ASN97       0.2266
     17  O         36.7310   -0.6300   33.5410 O.2    97  ASN97      -0.2867
     18  CB        37.6090    2.5910   33.4910 C.3    97  ASN97       0.1155
     19  CG        38.7610    3.5560   33.3090 C.2    97  ASN97       0.2627
     20  OD1       39.9200    3.2050   33.5420 O.2    97  ASN97      -0.2716
     21  ND2       38.4530    4.7790   32.8810 N.am   97  ASN97      -0.0877
     22  N         37.1690   -3.3540   34.2820 N.3   101  ARG101     -0.1245
     23  CA        36.5260   -3.7090   35.5430 C.3   101  ARG101      0.1563
     24  C         35.5360   -4.8630   35.3850 C.2   101  ARG101      0.2260
     25  O         35.4270   -5.7250   36.2600 O.2   101  ARG101     -0.2867
     26  CB        35.8130   -2.4840   36.1250 C.3   101  ARG101      0.0307
     27  CG        36.7690   -1.3660   36.5130 C.3   101  ARG101      0.0489
     28  CD        36.0310   -0.0880   36.8730 C.3   101  ARG101      0.2205
     29  NE        36.9650    0.9920   37.1690 N.pl3 101  ARG101     -0.0865
     30  CZ        36.6480    2.2820   37.1240 C.cat 101  ARG101      0.5346
     31  NH1       35.4160    2.6460   36.7950 N.pl3 101  ARG101      0.1354
     32  NH2       37.5650    3.2050   37.3930 N.pl3 101  ARG101      0.1354
     33  N         39.2150    3.5240   47.0790 N.3   110  ARG110     -0.1245
     34  CA        39.6930    4.8770   46.8680 C.3   110  ARG110      0.1563
     35  C         39.8560    5.6080   48.1880 C.2   110  ARG110      0.2260
     36  O         38.9650    5.6000   49.0400 O.2   110  ARG110     -0.2867
     37  CB        38.7300    5.6230   45.9400 C.3   110  ARG110      0.0307
     38  CG        38.7420    5.0570   44.5330 C.3   110  ARG110      0.0489
     39  CD        37.8220    5.8020   43.5830 C.3   110  ARG110      0.2205
     40  NE        38.0680    5.3740   42.2110 N.pl3 110  ARG110     -0.0865
     41  CZ        37.3950    5.8050   41.1500 C.cat 110  ARG110      0.5346
     42  NH1       36.4120    6.6870   41.2910 N.pl3 110  ARG110      0.1354
     43  NH2       37.7200    5.3630   39.9410 N.pl3 110  ARG110      0.1354
     44  N         34.3040    0.9550   46.1660 N.3   133  ARG133     -0.1245
     45  CA        33.3370    1.0370   45.0830 C.3   133  ARG133      0.1563
     46  C         33.1880   -0.2850   44.3410 C.2   133  ARG133      0.2260
     47  O         34.1400   -0.7740   43.7340 O.2   133  ARG133     -0.2867
     48  CB        33.7560    2.1380   44.1010 C.3   133  ARG133      0.0307
     49  CG        32.9690    2.1490   42.7870 C.3   133  ARG133      0.0489
     50  CD        33.5190    3.1890   41.8150 C.3   133  ARG133      0.2205
     51  NE        32.8250    3.1450   40.5300 N.pl3 133  ARG133     -0.0865
     52  CZ        33.1740    3.8500   39.4570 C.cat 133  ARG133      0.5346
     53  NH1       34.2170    4.6640   39.4960 N.pl3 133  ARG133      0.1354
     54  NH2       32.4700    3.7430   38.3400 N.pl3 133  ARG133      0.1354
     55  N         27.0330    0.5870   34.6710 N.3   140  TYR140     -0.1241
     56  CA        28.2000    0.4170   33.8020 C.3   140  TYR140      0.1605
     57  C         28.1870   -0.7650   32.8410 C.2   140  TYR140      0.2264
     58  O         29.1230   -0.9460   32.0620 O.2   140  TYR140     -0.2867
     59  CB        29.4690    0.3790   34.6450 C.3   140  TYR140      0.0534
     60  CG        29.8210    1.7360   35.1950 C.ar  140  TYR140     -0.0201
     61  CD1       29.1460    2.2690   36.2940 C.ar  140  TYR140     -0.0009
     62  CD2       30.7980    2.5150   34.5790 C.ar  140  TYR140     -0.0009
     63  CE1       29.4420    3.5550   36.7640 C.ar  140  TYR140      0.0417
     64  CE2       31.0950    3.7910   35.0350 C.ar  140  TYR140      0.0417
     65  CZ        30.4190    4.3050   36.1220 C.ar  140  TYR140      0.1957
     66  OH        30.7350    5.5680   36.5590 O.3   140  TYR140     -0.2866
     67  N         31.3360    6.0340   42.2440 N.3   275  ASP275     -0.1239
     68  CA        31.8640    6.9740   41.2710 C.3   275  ASP275      0.1674
     69  C         31.6270    8.4120   41.7350 C.2   275  ASP275      0.2266
     70  O         32.5630    9.2010   41.8690 O.2   275  ASP275     -0.2867
     71  CB        31.1930    6.7500   39.9110 C.3   275  ASP275      0.1410
     72  CG        31.6960    7.7140   38.8520 C.2   275  ASP275      0.3668
     73  OD1       32.9150    7.9530   38.8100 O.co2 275  ASP275     -0.2456
     74  OD2       30.8800    8.2270   38.0590 O.co2 275  ASP275     -0.2456
     75  N         34.5430   11.2970   44.2780 N.3   279  ASP279     -0.1239
     76  CA        35.0340   12.5970   43.8200 C.3   279  ASP279      0.1674
     77  C         34.7210   13.6660   44.8700 C.2   279  ASP279      0.2266
     78  O         35.4450   14.6540   45.0080 O.2   279  ASP279     -0.2867
     79  CB        34.4260   12.9510   42.4560 C.3   279  ASP279      0.1410
     80  CG        35.2500   12.4000   41.2950 C.2   279  ASP279      0.3668
     81  OD1       36.0340   11.4480   41.5160 O.co2 279  ASP279     -0.2456
     82  OD2       35.1170   12.9090   40.1640 O.co2 279  ASP279     -0.2456
     83  N         45.2350    2.5510   39.3540 N.3   306  GLU306     -0.1245
     84  CA        45.0330    3.5430   38.3070 C.3   306  GLU306      0.1567
     85  C         45.0450    4.9800   38.8080 C.2   306  GLU306      0.2260
     86  O         44.9120    5.2360   40.0000 O.2   306  GLU306     -0.2867
     87  CB        43.6760    3.3010   37.6480 C.3   306  GLU306      0.0388
     88  CG        42.5240    3.7780   38.5460 C.3   306  GLU306      0.1160
     89  CD        41.1400    3.4960   37.9880 C.2   306  GLU306      0.3649
     90  OE1       40.9510    3.5960   36.7560 O.co2 306  GLU306     -0.2457
     91  OE2       40.2320    3.1970   38.7960 O.co2 306  GLU306     -0.2457
     92  N         42.8000    7.7900   38.6900 N.3   308  ALA308     -0.1245
     93  CA        41.3790    7.9770   38.3910 C.3   308  ALA308      0.1562
     94  C         40.8540    9.3730   38.0480 C.2   308  ALA308      0.2260
     95  O         39.6440    9.6010   38.1010 O.2   308  ALA308     -0.2867
     96  CB        40.5440    7.3910   39.5300 C.3   308  ALA308      0.0290
@<TRIPOS>BOND
     1     3     4    2
     2     3     2    1
     3     2     1    1
     4     2     5    1
     5     8     9    1
     6     7     5    1
     7     5     6    1
     8     9    10    1
     9     9    12    1
    10    10    11    2
    11    12    13    1
    12    14    15    1
    13    58    57    2
    14    15    16    1
    15    15    18    1
    16    57    56    1
    17    16    17    2
    18    21    19   am
    19    19    18    1
    20    19    20    2
    21    56    59    1
    22    56    55    1
    23    22    23    1
    24    62    64   ar
    25    62    60   ar
    26    59    60    1
    27    64    65   ar
    28    60    61   ar
    29    24    23    1
    30    24    25    2
    31    23    26    1
    32    65    66    1
    33    65    63   ar
    34    26    27    1
    35    61    63   ar
    36    27    28    1
    37    90    89   ar
    38    31    30    1
    39    28    29    1
    40    30    29    2
    41    30    32    1
    42    87    84    1
    43    87    88    1
    44    89    88    1
    45    89    91   ar
    46    94    95    2
    47    94    93    1
    48    74    72   ar
    49    84    85    1
    50    84    83    1
    51    54    52    1
    52    93    92    1
    53    93    96    1
    54    85    86    2
    55    73    72   ar
    56    72    71    1
    57    52    53    1
    58    52    51    2
    59    71    68    1
    60    43    41    1
    61    82    80   ar
    62    51    50    1
    63    41    42    1
    64    41    40    2
    65    68    69    1
    66    68    67    1
    67    80    81   ar
    68    80    79    1
    69    69    70    2
    70    50    49    1
    71    40    39    1
    72    79    76    1
    73    49    48    1
    74    39    38    1
    75    47    46    2
    76    76    75    1
    77    76    77    1
    78    48    45    1
    79    46    45    1
    80    38    37    1
    81    77    78    2
    82    45    44    1
    83    37    34    1
    84    34    33    1
    85    34    35    1
    86    35    36    2
