@<TRIPOS>MOLECULE
tmp/1lwgA01.pdb
 98 89 0 0 0
SMALL
GASTEIGER

@<TRIPOS>ATOM
      1  N         19.5850    6.3840   11.5610 N.3    81  ASN81      -0.1240
      2  CA        18.9950    6.9150   10.3620 C.3    81  ASN81       0.1653
      3  C         18.2570    5.9400    9.4750 C.2    81  ASN81       0.2266
      4  O         18.7200    4.8210    9.1930 O.2    81  ASN81      -0.2867
      5  CB        19.9210    7.8810    9.6460 C.3    81  ASN81       0.1155
      6  CG        19.2290    8.5250    8.4740 C.2    81  ASN81       0.2627
      7  OD1       18.6340    7.8580    7.6130 O.2    81  ASN81      -0.2716
      8  ND2       19.3150    9.8370    8.4400 N.am   81  ASN81      -0.0877
      9  N         17.2720    6.4220    6.1450 N.3    83  LYS83      -0.1231
     10  CA        17.7090    6.1990    4.7970 C.3    83  LYS83       0.1693
     11  C         19.1360    5.5690    4.8240 C.2    83  LYS83       0.2591
     12  O         19.4900    4.6910    4.0430 O.2    83  LYS83      -0.2718
     13  CB        17.6730    7.5200    4.0310 C.3    83  LYS83       0.0285
     14  CG        17.1530    7.3930    2.5890 C.3    83  LYS83       0.0035
     15  CD        15.6900    6.9430    2.4580 C.3    83  LYS83       0.0206
     16  CE        15.4280    5.7750    1.4910 C.3    83  LYS83       0.1093
     17  NZ        14.6570    6.1080    0.2570 N.3    83  LYS83      -0.1314
     18  N         19.9900    6.0140    5.7610 N.am   84  MET84      -0.1979
     19  CA        21.3480    5.5050    5.8290 C.3    84  MET84       0.1605
     20  C         21.4070    4.1180    6.3420 C.2    84  MET84       0.2287
     21  O         22.1700    3.3310    5.8540 O.2    84  MET84      -0.2864
     22  CB        22.2220    6.3600    6.7750 C.3    84  MET84       0.0413
     23  CG        22.6050    7.7300    6.2130 C.3    84  MET84       0.0598
     24  SD        23.8490    8.7760    7.0620 S.3    84  MET84      -0.1393
     25  CE        23.0710    9.3670    8.5520 C.3    84  MET84       0.0692
     26  N         21.0610    1.7740    3.5630 N.3    87  MET87      -0.1245
     27  CA        22.1110    1.8940    2.5600 C.3    87  MET87       0.1570
     28  C         23.3990    1.1650    3.0370 C.2    87  MET87       0.2261
     29  O         24.0920    0.5180    2.2520 O.2    87  MET87      -0.2867
     30  CB        22.3330    3.4220    2.4980 C.3    87  MET87       0.0387
     31  CG        23.6480    3.7760    1.8370 C.3    87  MET87       0.0595
     32  SD        23.5500    3.1930    0.1560 S.3    87  MET87      -0.1393
     33  CE        25.3490    3.0010   -0.1570 C.3    87  MET87       0.0692
     34  N         31.7290    4.6570    4.2800 N.3    99  MET99      -0.1245
     35  CA        30.5900    5.4800    4.5870 C.3    99  MET99       0.1570
     36  C         30.7440    5.9950    5.9990 C.2    99  MET99       0.2261
     37  O         30.3580    7.1290    6.3320 O.2    99  MET99      -0.2867
     38  CB        29.3160    4.5720    4.4930 C.3    99  MET99       0.0387
     39  CG        27.9910    5.3020    4.4550 C.3    99  MET99       0.0595
     40  SD        26.5880    4.1100    4.5340 S.3    99  MET99      -0.1393
     41  CE        25.3120    5.3770    4.7760 C.3    99  MET99       0.0692
     42  N         25.4650   13.2590    9.8730 N.3   108  GLU108     -0.1245
     43  CA        24.2020   12.7910    9.3290 C.3   108  GLU108      0.1567
     44  C         23.7090   13.8130    8.2740 C.2   108  GLU108      0.2260
     45  O         23.3320   13.5160    7.1310 O.2   108  GLU108     -0.2867
     46  CB        23.2410   12.6760   10.5350 C.3   108  GLU108      0.0388
     47  CG        23.3000   11.3430   11.3220 C.3   108  GLU108      0.1160
     48  CD        21.9100   11.0420   11.8770 C.2   108  GLU108      0.3649
     49  OE1       21.0350   11.9040   11.8860 O.co2 108  GLU108     -0.2457
     50  OE2       21.6960    9.7950   12.2910 O.co2 108  GLU108     -0.2457
     51  N         25.7680   14.2520    5.1320 N.3   111  MET111     -0.1230
     52  CA        25.4120   13.0700    4.3540 C.3   111  MET111      0.1702
     53  C         24.1770   13.2010    3.5100 C.2   111  MET111      0.2592
     54  O         24.0470   12.5980    2.4490 O.2   111  MET111     -0.2718
     55  CB        25.3880   11.8240    5.2440 C.3   111  MET111      0.0401
     56  CG        26.8290   11.4130    5.3820 C.3   111  MET111      0.0596
     57  SD        27.4500   10.8160    3.7760 S.3   111  MET111     -0.1393
     58  CE        26.7940    9.1620    3.4690 C.3   111  MET111      0.0692
     59  N         23.2610   14.0010    3.9720 N.am  112  ALA112     -0.1980
     60  CA        22.0620   14.1660    3.2000 C.3   112  ALA112      0.1597
     61  C         22.2960   14.5930    1.7320 C.2   112  ALA112      0.2287
     62  O         21.5420   14.1720    0.8460 O.2   112  ALA112     -0.2864
     63  CB        21.1950   15.1890    3.9260 C.3   112  ALA112      0.0319
     64  N         22.8250   11.6740   -0.9960 N.3   115  THR115     -0.1218
     65  CA        21.7500   10.7560   -1.2980 C.3   115  THR115      0.1862
     66  C         21.8260   10.2010   -2.6830 C.2   115  THR115      0.2287
     67  O         21.7330    9.0140   -2.8620 O.2   115  THR115     -0.2866
     68  CB        20.3840   11.4620   -1.2270 C.3   115  THR115      0.1770
     69  OG1       20.1520   11.9500    0.0770 O.3   115  THR115     -0.2211
     70  CG2       19.3490   10.3850   -1.4920 C.3   115  THR115      0.0375
     71  N         24.8660    7.8540   -3.1160 N.3   118  MET118     -0.1230
     72  CA        24.7100    6.6330   -2.3000 C.3   118  MET118      0.1702
     73  C         23.8340    5.6190   -3.0320 C.2   118  MET118      0.2592
     74  O         24.1540    4.4150   -3.0880 O.2   118  MET118     -0.2718
     75  CB        24.1100    6.9160   -0.9210 C.3   118  MET118      0.0401
     76  CG        25.0580    7.6890    0.0250 C.3   118  MET118      0.0596
     77  SD        26.6620    6.8810    0.2910 S.3   118  MET118     -0.1393
     78  CE        27.8620    7.8710   -0.6980 C.3   118  MET118      0.0692
     79  N         22.7310    6.1620   -3.5740 N.am  119  ARG119     -0.1980
     80  CA        21.7390    5.4470   -4.3600 C.3   119  ARG119      0.1597
     81  C         22.4630    4.8060   -5.5810 C.2   119  ARG119      0.2287
     82  O         22.2690    3.6060   -5.9970 O.2   119  ARG119     -0.2864
     83  CB        20.6850    6.4630   -4.7740 C.3   119  ARG119      0.0334
     84  CG        19.4660    5.8020   -5.3000 C.3   119  ARG119      0.0492
     85  CD        18.4130    5.9800   -4.2420 C.3   119  ARG119      0.2205
     86  NE        18.1200    7.4070   -4.0400 N.pl3 119  ARG119     -0.0865
     87  CZ        17.4900    7.9280   -2.9660 C.cat 119  ARG119      0.5346
     88  NH1       17.0670    7.2080   -1.9110 N.pl3 119  ARG119      0.1354
     89  NH2       17.2710    9.2410   -2.9610 N.pl3 119  ARG119      0.1354
     90  N         24.1940    1.9320   -4.4450 N.3   122  GLN122     -0.1245
     91  CA        23.2510    0.8400   -4.3360 C.3   122  GLN122      0.1566
     92  C         22.9920    0.2730   -5.7360 C.2   122  GLN122      0.2260
     93  O         22.8460   -0.9290   -5.9470 O.2   122  GLN122     -0.2867
     94  CB        21.9370    1.3120   -3.7610 C.3   122  GLN122      0.0367
     95  CG        22.0850    1.8120   -2.3220 C.3   122  GLN122      0.0905
     96  CD        20.7110    2.0250   -1.6900 C.2   122  GLN122      0.2608
     97  OE1       20.0020    3.0030   -2.0140 O.2   122  GLN122     -0.2717
     98  NE2       20.3070    1.0920   -0.8130 N.am  122  GLN122     -0.0878
@<TRIPOS>BOND
     1    82    81    2
     2    93    92    2
     3    92    91    1
     4    81    80    1
     5    84    83    1
     6    84    85    1
     7    83    80    1
     8    90    91    1
     9    80    79    1
    10    91    94    1
    11    85    86    1
    12    86    87    2
    13    94    95    1
    14    79    73   am
    15    71    72    1
    16    74    73    2
    17    73    72    1
    18    87    89    1
    19    87    88    1
    20    67    66    2
    21    66    65    1
    22    95    96    1
    23    72    75    1
    24    97    96    2
    25    96    98   am
    26    70    68    1
    27    65    68    1
    28    65    64    1
    29    68    69    1
    30    75    76    1
    31    78    77    1
    32    33    32    1
    33    76    77    1
    34    32    31    1
    35    17    16    1
    36    62    61    2
    37    16    15    1
    38    61    60    1
    39    31    30    1
    40    29    28    2
    41    54    53    2
    42    15    14    1
    43    30    27    1
    44    27    28    1
    45    27    26    1
    46    14    13    1
    47    60    63    1
    48    60    59    1
    49    58    57    1
    50    53    59   am
    51    53    52    1
    52    57    56    1
    53    13    10    1
    54    12    11    2
    55    34    35    1
    56    52    51    1
    57    52    55    1
    58    39    38    1
    59    39    40    1
    60    38    35    1
    61    40    41    1
    62    35    36    1
    63    10    11    1
    64    10     9    1
    65    11    18   am
    66    55    56    1
    67    18    19    1
    68    19    20    1
    69    19    22    1
    70    21    20    2
    71    36    37    2
    72    23    22    1
    73    23    24    1
    74    24    25    1
    75    45    44    2
    76     7     6    2
    77    44    43    1
    78     8     6   am
    79     6     5    1
    80     4     3    2
    81    43    42    1
    82    43    46    1
    83     3     2    1
    84     5     2    1
    85     2     1    1
    86    46    47    1
    87    47    48    1
    88    48    49   ar
    89    48    50   ar
