@<TRIPOS>MOLECULE
tmp/1lwjB00.pdb
 261 258 0 0 0
SMALL
GASTEIGER

@<TRIPOS>ATOM
      1  N         14.2070   43.8870   17.0830 N.3    52  HIS52      -0.1241
      2  CA        13.6940   44.1540   18.4170 C.3    52  HIS52       0.1621
      3  C         12.1610   44.0960   18.4060 C.2    52  HIS52       0.2264
      4  O         11.5510   43.4440   19.2610 O.2    52  HIS52      -0.2867
      5  CB        14.2070   45.5100   18.9310 C.3    52  HIS52       0.0745
      6  CG        14.1250   46.6260   17.9300 C.ar   52  HIS52       0.0817
      7  ND1       12.9850   47.3750   17.7360 N.ar   52  HIS52      -0.2268
      8  CD2       15.0530   47.1260   17.0800 C.ar   52  HIS52       0.1154
      9  CE1       13.2160   48.2890   16.8110 C.ar   52  HIS52       0.1986
     10  NE2       14.4640   48.1580   16.3970 N.ar   52  HIS52      -0.2212
     11  N          9.8850   47.0700   18.0470 N.3    54  TYR54      -0.1227
     12  CA         9.2030   48.1970   18.6780 C.3    54  TYR54       0.1736
     13  C          8.4110   49.0580   17.6800 C.2    54  TYR54       0.2595
     14  O          7.5430   49.8580   18.0650 O.2    54  TYR54      -0.2718
     15  CB        10.2250   49.0120   19.4810 C.3    54  TYR54       0.0548
     16  CG        10.5200   48.3710   20.8250 C.ar   54  TYR54      -0.0200
     17  CD1        9.5930   48.4360   21.8670 C.ar   54  TYR54      -0.0009
     18  CD2       11.6770   47.6280   21.0330 C.ar   54  TYR54      -0.0009
     19  CE1        9.8070   47.7710   23.0810 C.ar   54  TYR54       0.0417
     20  CE2       11.9000   46.9530   22.2510 C.ar   54  TYR54       0.0417
     21  CZ        10.9590   47.0340   23.2640 C.ar   54  TYR54       0.1957
     22  OH        11.1720   46.3900   24.4600 O.3    54  TYR54      -0.2866
     23  N          8.6980   48.8600   16.3950 N.am   55  ASP55      -0.1974
     24  CA         8.0090   49.5590   15.3070 C.3    55  ASP55       0.1709
     25  C          6.9880   48.5400   14.7980 C.2    55  ASP55       0.2293
     26  O          7.2610   47.7760   13.8710 O.2    55  ASP55      -0.2864
     27  CB         9.0210   49.9580   14.2080 C.3    55  ASP55       0.1436
     28  CG         9.8830   48.7870   13.7310 C.2    55  ASP55       0.3671
     29  OD1       10.3470   47.9980   14.5790 O.co2  55  ASP55      -0.2456
     30  OD2       10.1120   48.6610   12.5040 O.co2  55  ASP55      -0.2456
     31  N          3.7030   54.5510   19.2530 N.3    94  HIS94      -0.1241
     32  CA         3.8260   54.7830   17.8270 C.3    94  HIS94       0.1621
     33  C          3.6030   53.4770   17.0820 C.2    94  HIS94       0.2264
     34  O          3.4710   52.4060   17.6840 O.2    94  HIS94      -0.2867
     35  CB         5.2440   55.2680   17.5320 C.3    94  HIS94       0.0745
     36  CG         6.3100   54.4280   18.1780 C.ar   94  HIS94       0.0817
     37  ND1        6.5670   54.4610   19.5340 N.ar   94  HIS94      -0.2268
     38  CD2        7.1520   53.4980   17.6630 C.ar   94  HIS94       0.1154
     39  CE1        7.5180   53.5900   19.8240 C.ar   94  HIS94       0.1986
     40  NE2        7.8900   52.9920   18.7070 N.ar   94  HIS94      -0.2212
     41  N         15.2850   65.9050   20.5300 N.3   129  ARG129     -0.1231
     42  CA        15.0950   64.9460   21.6150 C.3   129  ARG129      0.1694
     43  C         15.8570   65.5260   22.7900 C.2   129  ARG129      0.2592
     44  O         16.9570   66.0410   22.6340 O.2   129  ARG129     -0.2718
     45  CB        15.7450   63.5940   21.3090 C.3   129  ARG129      0.0321
     46  CG        15.0560   62.7040   20.3390 C.3   129  ARG129      0.0489
     47  CD        15.9530   61.4690   20.1340 C.3   129  ARG129      0.2205
     48  NE        15.2960   60.3860   19.3950 N.pl3 129  ARG129     -0.0865
     49  CZ        15.8240   59.1760   19.1880 C.cat 129  ARG129      0.5346
     50  NH1       17.0250   58.8840   19.6610 N.pl3 129  ARG129      0.1354
     51  NH2       15.1520   58.2400   18.5160 N.pl3 129  ARG129      0.1354
     52  N         15.3230   65.3510   23.9840 N.am  130  GLU130     -0.1966
     53  CA        15.9700   65.9130   25.1420 C.3   130  GLU130      0.1733
     54  C         17.3370   65.2780   25.3020 C.2   130  GLU130      0.2616
     55  O         18.3570   65.9740   25.4110 O.2   130  GLU130     -0.2715
     56  CB        15.1030   65.6790   26.3740 C.3   130  GLU130      0.0429
     57  CG        14.9010   64.2100   26.6930 C.3   130  GLU130      0.1163
     58  CD        13.7500   63.9630   27.6460 C.2   130  GLU130      0.3649
     59  OE1       13.8030   64.5030   28.7770 O.co2 130  GLU130     -0.2457
     60  OE2       12.7980   63.2310   27.2600 O.co2 130  GLU130     -0.2457
     61  N         17.3730   63.9530   25.2760 N.am  131  TRP131     -0.1974
     62  CA        18.6440   63.3060   25.4430 C.3   131  TRP131      0.1640
     63  C         19.6290   63.4100   24.2530 C.2   131  TRP131      0.2290
     64  O         20.2720   64.4490   24.1020 O.2   131  TRP131     -0.2864
     65  CB        18.4370   61.8540   25.9170 C.3   131  TRP131      0.0576
     66  CG        17.8200   60.8800   24.9100 C.ar  131  TRP131      0.0006
     67  CD1       18.4550   59.8600   24.2330 C.ar  131  TRP131      0.0946
     68  CD2       16.4580   60.8550   24.4660 C.ar  131  TRP131      0.0152
     69  NE1       17.5610   59.2120   23.3980 N.ar  131  TRP131     -0.2442
     70  CE2       16.3270   59.8060   23.5210 C.ar  131  TRP131      0.0810
     71  CE3       15.3290   61.6220   24.7750 C.ar  131  TRP131      0.0012
     72  CZ2       15.1080   59.5110   22.8850 C.ar  131  TRP131      0.0191
     73  CZ3       14.1240   61.3320   24.1470 C.ar  131  TRP131      0.0001
     74  CH2       14.0210   60.2890   23.2140 C.ar  131  TRP131      0.0015
     75  N         10.9830   58.5680   17.7300 N.3   150  PHE150     -0.1241
     76  CA        11.9120   57.4360   17.6840 C.3   150  PHE150      0.1605
     77  C         12.5010   57.1060   16.3220 C.2   150  PHE150      0.2264
     78  O         13.2140   56.1160   16.1740 O.2   150  PHE150     -0.2867
     79  CB        11.2480   56.2010   18.2850 C.3   150  PHE150      0.0534
     80  CG        11.0480   56.3120   19.7560 C.ar  150  PHE150     -0.0203
     81  CD1       12.1490   56.3700   20.6130 C.ar  150  PHE150     -0.0042
     82  CD2        9.7730   56.4500   20.2880 C.ar  150  PHE150     -0.0042
     83  CE1       11.9840   56.5710   21.9810 C.ar  150  PHE150     -0.0003
     84  CE2        9.5960   56.6530   21.6600 C.ar  150  PHE150     -0.0003
     85  CZ        10.7040   56.7150   22.5050 C.ar  150  PHE150     -0.0000
     86  N          9.1570   55.1410   12.8550 N.3   154  SER154     -0.1217
     87  CA         8.4480   54.8970   14.1020 C.3   154  SER154      0.1889
     88  C          7.6500   56.1700   14.4240 C.2   154  SER154      0.2288
     89  O          7.8240   56.7700   15.4930 O.2   154  SER154     -0.2866
     90  CB         9.4530   54.5840   15.2270 C.3   154  SER154      0.2089
     91  OG        10.2240   53.4170   14.9410 O.3   154  SER154     -0.2183
     92  N          3.6500   46.1480   29.6290 N.3   184  ARG184     -0.1245
     93  CA         4.8060   46.9560   29.9580 C.3   184  ARG184      0.1563
     94  C          4.6710   47.9970   28.8530 C.2   184  ARG184      0.2260
     95  O          4.8290   47.6840   27.6660 O.2   184  ARG184     -0.2867
     96  CB         6.1070   46.1660   29.8080 C.3   184  ARG184      0.0307
     97  CG         7.3840   47.0090   29.9210 C.3   184  ARG184      0.0489
     98  CD         7.7280   47.7280   28.6140 C.3   184  ARG184      0.2205
     99  NE         9.0530   48.3480   28.6630 N.pl3 184  ARG184     -0.0865
    100  CZ         9.6850   48.8930   27.6230 C.cat 184  ARG184      0.5346
    101  NH1        9.1190   48.9060   26.4210 N.pl3 184  ARG184      0.1354
    102  NH2       10.8960   49.4210   27.7840 N.pl3 184  ARG184      0.1354
    103  N          5.7580   50.7260   26.5920 N.3   186  ASP186     -0.1225
    104  CA         6.9590   51.2210   25.9560 C.3   186  ASP186      0.1805
    105  C          6.7920   52.7160   25.7130 C.2   186  ASP186      0.2597
    106  O          5.7320   53.1510   25.2590 O.2   186  ASP186     -0.2718
    107  CB         7.1330   50.4270   24.6590 C.3   186  ASP186      0.1424
    108  CG         8.1680   51.0020   23.7490 C.2   186  ASP186      0.3668
    109  OD1        7.8000   51.8480   22.9060 O.co2 186  ASP186     -0.2456
    110  OD2        9.3430   50.6010   23.8800 O.co2 186  ASP186     -0.2456
    111  N          7.8270   53.4980   26.0310 N.am  187  ALA187     -0.1979
    112  CA         7.7870   54.9610   25.8790 C.3   187  ALA187      0.1597
    113  C          6.5010   55.5280   26.4830 C.2   187  ALA187      0.2287
    114  O          5.8630   56.4030   25.9030 O.2   187  ALA187     -0.2864
    115  CB         7.8890   55.3480   24.4090 C.3   187  ALA187      0.0319
    116  N          6.2760   57.3760   28.6960 N.3   189  LYS189     -0.1231
    117  CA         6.6160   58.7200   29.1510 C.3   189  LYS189      0.1693
    118  C          6.2110   59.8410   28.1800 C.2   189  LYS189      0.2592
    119  O          5.9960   60.9830   28.5890 O.2   189  LYS189     -0.2718
    120  CB         8.1200   58.7660   29.4180 C.3   189  LYS189      0.0285
    121  CG         8.6790   60.1330   29.6140 C.3   189  LYS189      0.0035
    122  CD        10.1680   60.0260   29.8200 C.3   189  LYS189      0.0206
    123  CE        10.8530   61.3690   29.6330 C.3   189  LYS189      0.1093
    124  NZ        12.3290   61.2250   29.4980 N.3   189  LYS189     -0.1314
    125  N          6.0800   59.5020   26.9010 N.am  190  HIS190     -0.1976
    126  CA         5.7410   60.4830   25.8770 C.3   190  HIS190      0.1656
    127  C          4.3750   60.2770   25.2260 C.2   190  HIS190      0.2291
    128  O          4.2280   60.4860   24.0190 O.2   190  HIS190     -0.2864
    129  CB         6.8100   60.4590   24.7850 C.3   190  HIS190      0.0771
    130  CG         8.1990   60.2770   25.3080 C.ar  190  HIS190      0.0820
    131  ND1        8.9270   61.3080   25.8620 N.ar  190  HIS190     -0.2267
    132  CD2        8.9810   59.1750   25.3870 C.ar  190  HIS190      0.1154
    133  CE1       10.1000   60.8490   26.2600 C.ar  190  HIS190      0.1986
    134  NE2       10.1570   59.5570   25.9830 N.ar  190  HIS190     -0.2212
    135  N          6.8980   52.4720   31.5040 N.3   216  GLU216     -0.1245
    136  CA         8.2910   52.7480   31.2380 C.3   216  GLU216      0.1567
    137  C          8.4430   54.2430   31.0650 C.2   216  GLU216      0.2260
    138  O          8.0710   54.8120   30.0380 O.2   216  GLU216     -0.2867
    139  CB         8.7940   52.0390   29.9750 C.3   216  GLU216      0.0388
    140  CG        10.3050   52.2550   29.7900 C.3   216  GLU216      0.1160
    141  CD        10.7070   52.5810   28.3710 C.2   216  GLU216      0.3649
    142  OE1        9.8590   53.1120   27.6320 O.co2 216  GLU216     -0.2457
    143  OE2       11.8730   52.3240   28.0040 O.co2 216  GLU216     -0.2457
    144  N         11.4570   56.9360   31.5840 N.3   218  TRP218     -0.1227
    145  CA        12.8570   57.1530   31.8840 C.3   218  TRP218      0.1737
    146  C         13.0890   58.6040   32.3190 C.2   218  TRP218      0.2595
    147  O         13.5320   59.4270   31.5170 O.2   218  TRP218     -0.2718
    148  CB        13.6670   56.8440   30.6300 C.3   218  TRP218      0.0564
    149  CG        15.0440   56.3210   30.8450 C.ar  218  TRP218      0.0003
    150  CD1       15.9790   56.7940   31.7140 C.ar  218  TRP218      0.0946
    151  CD2       15.6860   55.2900   30.0860 C.ar  218  TRP218      0.0152
    152  NE1       17.1680   56.1320   31.5400 N.ar  218  TRP218     -0.2442
    153  CE2       17.0150   55.2030   30.5450 C.ar  218  TRP218      0.0810
    154  CE3       15.2650   54.4340   29.0550 C.ar  218  TRP218      0.0012
    155  CZ2       17.9320   54.2920   30.0070 C.ar  218  TRP218      0.0191
    156  CZ3       16.1740   53.5280   28.5210 C.ar  218  TRP218      0.0001
    157  CH2       17.4940   53.4660   28.9990 C.ar  218  TRP218      0.0015
    158  N         12.7820   58.9140   33.5820 N.am  219  ALA219     -0.1966
    159  CA        12.9710   60.2670   34.1170 C.3   219  ALA219      0.1728
    160  C         13.2440   60.2870   35.6220 C.2   219  ALA219      0.2616
    161  O         13.1340   59.2660   36.3110 O.2   219  ALA219     -0.2715
    162  CB        11.7470   61.1300   33.8050 C.3   219  ALA219      0.0334
    163  N         13.6040   61.4620   36.1270 N.am  220  GLU220     -0.1977
    164  CA        13.8760   61.6120   37.5450 C.3   220  GLU220      0.1602
    165  C         12.6970   61.0080   38.3040 C.2   220  GLU220      0.2287
    166  O         11.5680   61.0290   37.8080 O.2   220  GLU220     -0.2864
    167  CB        14.0360   63.0800   37.8850 C.3   220  GLU220      0.0415
    168  CG        12.7650   63.9070   37.5170 C.3   220  GLU220      0.1163
    169  CD        12.9710   65.4230   37.5740 C.2   220  GLU220      0.3649
    170  OE1       14.0670   65.9000   37.9450 O.co2 220  GLU220     -0.2457
    171  OE2       12.0160   66.1490   37.2700 O.co2 220  GLU220     -0.2457
    172  N         14.3380   53.2240   37.1010 N.3   237  PHE237     -0.1227
    173  CA        15.6630   53.4030   36.4910 C.3   237  PHE237      0.1736
    174  C         16.6330   54.0550   37.4640 C.2   237  PHE237      0.2595
    175  O         17.8480   53.7930   37.4380 O.2   237  PHE237     -0.2718
    176  CB        15.5850   54.2890   35.2430 C.3   237  PHE237      0.0547
    177  CG        14.8980   53.6490   34.0830 C.ar  237  PHE237     -0.0202
    178  CD1       13.5210   53.7760   33.9130 C.ar  237  PHE237     -0.0042
    179  CD2       15.6250   52.9010   33.1670 C.ar  237  PHE237     -0.0042
    180  CE1       12.8750   53.1680   32.8460 C.ar  237  PHE237     -0.0003
    181  CE2       14.9920   52.2870   32.0950 C.ar  237  PHE237     -0.0003
    182  CZ        13.6120   52.4190   31.9330 C.ar  237  PHE237     -0.0000
    183  N         16.0750   54.9200   38.3070 N.am  238  ASP238     -0.1974
    184  CA        16.8350   55.6530   39.3000 C.3   238  ASP238      0.1709
    185  C         17.6480   54.7350   40.1730 C.2   238  ASP238      0.2293
    186  O         18.8730   54.7630   40.1300 O.2   238  ASP238     -0.2864
    187  CB        15.9010   56.4720   40.1810 C.3   238  ASP238      0.1436
    188  CG        16.6490   57.3670   41.1280 C.2   238  ASP238      0.3671
    189  OD1       17.3060   56.8270   42.0420 O.co2 238  ASP238     -0.2456
    190  OD2       16.5890   58.6040   40.9440 O.co2 238  ASP238     -0.2456
    191  N         19.9610   51.9330   38.3780 N.3   241  HIS241     -0.1241
    192  CA        21.2850   52.3430   37.9580 C.3   241  HIS241      0.1621
    193  C         22.2000   52.5530   39.1710 C.2   241  HIS241      0.2264
    194  O         23.3920   52.2360   39.1210 O.2   241  HIS241     -0.2867
    195  CB        21.2130   53.6260   37.1350 C.3   241  HIS241      0.0745
    196  CG        22.5250   54.0270   36.5310 C.ar  241  HIS241      0.0817
    197  ND1       23.6060   54.4210   37.2920 N.ar  241  HIS241     -0.2268
    198  CD2       22.9310   54.0910   35.2410 C.ar  241  HIS241      0.1154
    199  CE1       24.6200   54.7130   36.4960 C.ar  241  HIS241      0.1986
    200  NE2       24.2370   54.5210   35.2460 N.ar  241  HIS241     -0.2212
    201  N         18.6390   46.1050   31.1700 N.3   276  ASN276     -0.1225
    202  CA        17.7040   45.9910   30.0620 C.3   276  ASN276      0.1785
    203  C         18.4380   46.0830   28.7210 C.2   276  ASN276      0.2597
    204  O         19.6780   46.1910   28.6530 O.2   276  ASN276     -0.2718
    205  CB        16.5530   47.0290   30.2070 C.3   276  ASN276      0.1169
    206  CG        16.9260   48.4690   29.7890 C.2   276  ASN276      0.2627
    207  OD1       17.8050   48.6850   28.9590 O.2   276  ASN276     -0.2716
    208  ND2       16.2190   49.4630   30.3460 N.am  276  ASN276     -0.0877
    209  N         17.6590   46.0020   27.6540 N.am  277  HIS277     -0.1961
    210  CA        18.1650   46.0240   26.2860 C.3   277  HIS277      0.1787
    211  C         18.5710   47.4070   25.7560 C.2   277  HIS277      0.2620
    212  O         19.1210   47.5130   24.6660 O.2   277  HIS277     -0.2715
    213  CB        17.0950   45.4390   25.3750 C.3   277  HIS277      0.0785
    214  CG        15.7740   46.1410   25.4930 C.ar  277  HIS277      0.0821
    215  ND1       15.0950   46.2660   26.6860 N.ar  277  HIS277     -0.2267
    216  CD2       15.0330   46.7980   24.5680 C.ar  277  HIS277      0.1154
    217  CE1       13.9970   46.9700   26.4910 C.ar  277  HIS277      0.1986
    218  NE2       13.9340   47.3060   25.2150 N.ar  277  HIS277     -0.2212
    219  N         18.3170   48.4510   26.5280 N.am  278  ASP278     -0.1971
    220  CA        18.6500   49.8230   26.1390 C.3   278  ASP278      0.1709
    221  C         19.9320   50.3410   26.7410 C.2   278  ASP278      0.2293
    222  O         20.2220   51.5320   26.6710 O.2   278  ASP278     -0.2864
    223  CB        17.5360   50.7580   26.5610 C.3   278  ASP278      0.1436
    224  CG        16.3820   50.7020   25.6350 C.2   278  ASP278      0.3671
    225  OD1       16.2150   49.6620   24.9540 O.co2 278  ASP278     -0.2456
    226  OD2       15.6480   51.7000   25.5900 O.co2 278  ASP278     -0.2456
    227  N         26.3540   47.6160   25.3470 N.3   322  TYR322     -0.1241
    228  CA        25.3570   48.2700   24.5200 C.3   322  TYR322      0.1605
    229  C         26.0280   49.1560   23.4860 C.2   322  TYR322      0.2264
    230  O         27.1750   49.5680   23.6680 O.2   322  TYR322     -0.2867
    231  CB        24.4490   49.1350   25.3770 C.3   322  TYR322      0.0534
    232  CG        23.3170   49.7550   24.6030 C.ar  322  TYR322     -0.0201
    233  CD1       22.1550   49.0320   24.3410 C.ar  322  TYR322     -0.0009
    234  CD2       23.4030   51.0590   24.1260 C.ar  322  TYR322     -0.0009
    235  CE1       21.0990   49.5980   23.6260 C.ar  322  TYR322      0.0417
    236  CE2       22.3530   51.6350   23.4030 C.ar  322  TYR322      0.0417
    237  CZ        21.2040   50.8980   23.1620 C.ar  322  TYR322      0.1957
    238  OH        20.1550   51.4580   22.4720 O.3   322  TYR322     -0.2866
    239  N         24.9430   51.2400   19.2590 N.3   324  LYS324     -0.1231
    240  CA        24.0380   51.3730   18.1210 C.3   324  LYS324      0.1678
    241  C         24.8140   51.3690   16.8190 C.2   324  LYS324      0.2434
    242  O         26.0260   51.5660   16.8120 O.2   324  LYS324     -0.2733
    243  CB        23.2300   52.6680   18.2080 C.3   324  LYS324      0.0284
    244  CG        22.3380   52.7600   19.4160 C.3   324  LYS324      0.0035
    245  CD        21.4280   53.9480   19.2710 C.3   324  LYS324      0.0206
    246  CE        20.8330   54.3600   20.5990 C.3   324  LYS324      0.1093
    247  NZ        19.9740   55.5800   20.4490 N.3   324  LYS324     -0.1314
    248  N         24.1250   51.1170   15.6950 N.am  325  PRO325     -0.2729
    249  CA        22.6850   50.8510   15.5630 C.3   325  PRO325      0.1401
    250  C         22.3930   49.3660   15.7960 C.2   325  PRO325      0.2269
    251  O         21.2390   48.9390   15.9280 O.2   325  PRO325     -0.2865
    252  CB        22.4020   51.2730   14.1330 C.3   325  PRO325      0.0296
    253  CG        23.6570   50.7990   13.4330 C.3   325  PRO325      0.0237
    254  CD        24.7650   51.2070   14.3690 C.3   325  PRO325      0.0939
    255  N         21.9240   47.3050   17.9690 N.3   327  THR327     -0.1218
    256  CA        21.5240   47.1120   19.3590 C.3   327  THR327      0.1862
    257  C         21.2540   45.6500   19.7420 C.2   327  THR327      0.2287
    258  O         20.7650   45.3750   20.8360 O.2   327  THR327     -0.2866
    259  CB        20.2550   47.9510   19.6990 C.3   327  THR327      0.1770
    260  OG1       19.1870   47.6100   18.8040 O.3   327  THR327     -0.2211
    261  CG2       20.5500   49.4350   19.5950 C.3   327  THR327      0.0375
@<TRIPOS>BOND
     1    30    28   ar
     2    86    87    1
     3   253   252    1
     4   253   254    1
     5    28    27    1
     6    28    29   ar
     7    26    25    2
     8    87    88    1
     9    87    90    1
    10   252   249    1
    11    27    24    1
    12   254   248    1
    13    88    89    2
    14    25    24    1
    15    91    90    1
    16    24    23    1
    17   249   248    1
    18   249   250    1
    19   248   241   am
    20   250   251    2
    21    78    77    2
    22    77    76    1
    23    23    13   am
    24    10     9   ar
    25    10     8   ar
    26     9     7   ar
    27   242   241    2
    28   241   240    1
    29     8     6   ar
    30    33    34    2
    31    33    32    1
    32     1     2    1
    33    35    32    1
    34    35    36    1
    35    38    36   ar
    36    38    40   ar
    37    13    14    2
    38    13    12    1
    39    76    75    1
    40    76    79    1
    41     7     6   ar
    42    32    31    1
    43     6     5    1
    44   255   256    1
    45    11    12    1
    46   240   243    1
    47   240   239    1
    48    36    37   ar
    49   243   244    1
    50    79    80    1
    51     3     2    1
    52     3     4    2
    53     2     5    1
    54    51    49    1
    55    12    15    1
    56    40    39   ar
    57   260   259    1
    58    49    48    2
    59    49    50    1
    60   245   244    1
    61   245   246    1
    62   256   259    1
    63   256   257    1
    64    48    47    1
    65    15    16    1
    66    37    39   ar
    67   261   259    1
    68   257   258    2
    69    80    82   ar
    70    80    81   ar
    71    47    46    1
    72    82    84   ar
    73    46    45    1
    74   247   246    1
    75    41    42    1
    76    81    83   ar
    77    16    18   ar
    78    16    17   ar
    79    18    20   ar
    80    45    42    1
    81    42    43    1
    82    84    85   ar
    83    17    19   ar
    84    83    85   ar
    85    20    21   ar
    86   238   237    1
    87    44    43    2
    88    43    52   am
    89    72    74   ar
    90    72    70   ar
    91   109   108   ar
    92    19    21   ar
    93   237   236   ar
    94   237   235   ar
    95    74    73   ar
    96    21    22    1
    97    69    70   ar
    98    69    67   ar
    99   236   234   ar
   100   229   230    2
   101   229   228    1
   102    70    68   ar
   103   235   233   ar
   104   108   110   ar
   105   108   107    1
   106    52    53    1
   107   128   127    2
   108    64    63    2
   109   234   232   ar
   110    73    71   ar
   111    67    66   ar
   112    63    62    1
   113   233   232   ar
   114   115   112    1
   115    68    71   ar
   116    68    66   ar
   117   228   227    1
   118   228   231    1
   119   216   218   ar
   120   216   214   ar
   121   232   231    1
   122   107   104    1
   123   212   211    2
   124   129   130    1
   125   129   126    1
   126    66    65    1
   127   225   224   ar
   128    53    54    1
   129    53    56    1
   130   218   217   ar
   131   127   126    1
   132   106   105    2
   133    61    54   am
   134    61    62    1
   135    54    55    2
   136   130   132   ar
   137   130   131   ar
   138   213   214    1
   139   213   210    1
   140   132   134   ar
   141    62    65    1
   142   214   215   ar
   143   226   224   ar
   144   224   223    1
   145   105   104    1
   146   105   111   am
   147   211   210    1
   148   211   219   am
   149   131   133   ar
   150   126   125    1
   151   112   111    1
   152   112   113    1
   153   114   113    2
   154   104   103    1
   155   134   133   ar
   156   220   219    1
   157   220   223    1
   158   220   221    1
   159   210   209    1
   160    56    57    1
   161   101   100    1
   162   217   215   ar
   163   222   221    2
   164    57    58    1
   165   125   118   am
   166    60    58   ar
   167   100   102    1
   168   100    99    2
   169   142   141   ar
   170    58    59   ar
   171   209   203   am
   172    95    94    2
   173   143   141   ar
   174   118   119    2
   175   118   117    1
   176   141   140    1
   177   156   157   ar
   178   156   154   ar
   179    98    99    1
   180    98    97    1
   181   204   203    2
   182   116   117    1
   183   203   202    1
   184    94    93    1
   185   207   206    2
   186   157   155   ar
   187   154   151   ar
   188   117   120    1
   189   120   121    1
   190   124   123    1
   191   121   122    1
   192    92    93    1
   193   123   122    1
   194   206   205    1
   195   206   208   am
   196   140   139    1
   197    96    97    1
   198    96    93    1
   199   139   136    1
   200   155   153   ar
   201   138   137    2
   202   202   205    1
   203   202   201    1
   204   151   153   ar
   205   151   149   ar
   206   153   152   ar
   207   148   149    1
   208   148   145    1
   209   149   150   ar
   210   137   136    1
   211   136   135    1
   212   147   146    2
   213   152   150   ar
   214   144   145    1
   215   145   146    1
   216   182   181   ar
   217   182   180   ar
   218   181   179   ar
   219   146   158   am
   220   180   178   ar
   221   179   177   ar
   222   158   159    1
   223   162   159    1
   224   178   177   ar
   225   177   176    1
   226   159   160    1
   227   198   200   ar
   228   198   196   ar
   229   176   173    1
   230   200   199   ar
   231   160   163   am
   232   160   161    2
   233   163   164    1
   234   173   172    1
   235   173   174    1
   236   199   197   ar
   237   196   195    1
   238   196   197   ar
   239   195   192    1
   240   171   169   ar
   241   175   174    2
   242   174   183   am
   243   168   169    1
   244   168   167    1
   245   164   167    1
   246   164   165    1
   247   169   170   ar
   248   166   165    2
   249   192   191    1
   250   192   193    1
   251   183   184    1
   252   194   193    2
   253   184   185    1
   254   184   187    1
   255   186   185    2
   256   187   188    1
   257   190   188   ar
   258   188   189   ar
