@<TRIPOS>MOLECULE
tmp/1lwuB00.pdb
 124 118 0 0 0
SMALL
GASTEIGER

@<TRIPOS>ATOM
      1  N        -25.6090  -16.2860  209.3940 N.3   218  LEU218     -0.1245
      2  CA       -24.5640  -17.2810  209.2160 C.3   218  LEU218      0.1561
      3  C        -25.2780  -18.6140  209.1580 C.2   218  LEU218      0.2260
      4  O        -26.3240  -18.7860  209.7880 O.2   218  LEU218     -0.2867
      5  CB       -23.5800  -17.2670  210.3860 C.3   218  LEU218      0.0270
      6  CG       -22.6350  -16.0690  210.5050 C.3   218  LEU218      0.0019
      7  CD1      -21.6420  -16.3070  211.6270 C.3   218  LEU218      0.0001
      8  CD2      -21.8960  -15.8710  209.2200 C.3   218  LEU218      0.0001
      9  N        -21.0370  -22.2110  211.3260 N.3   222  ASN222     -0.1240
     10  CA       -20.6110  -20.8240  211.3730 C.3   222  ASN222      0.1653
     11  C        -21.5600  -20.0890  212.3000 C.2   222  ASN222      0.2266
     12  O        -21.1360  -19.3150  213.1600 O.2   222  ASN222     -0.2867
     13  CB       -20.6760  -20.2050  209.9740 C.3   222  ASN222      0.1155
     14  CG       -19.4230  -20.4590  209.1690 C.2   222  ASN222      0.2627
     15  OD1      -18.8640  -21.5550  209.1950 O.2   222  ASN222     -0.2716
     16  ND2      -18.9780  -19.4460  208.4370 N.am  222  ASN222     -0.0877
     17  N        -21.2460  -21.0170  216.0180 N.3   225  MET225     -0.1230
     18  CA       -20.0460  -20.5220  216.6920 C.3   225  MET225      0.1702
     19  C        -20.0790  -19.0310  217.0350 C.2   225  MET225      0.2593
     20  O        -19.0470  -18.4200  217.3210 O.2   225  MET225     -0.2718
     21  CB       -18.7630  -20.8820  215.9120 C.3   225  MET225      0.0401
     22  CG       -18.6450  -20.4280  214.4690 C.3   225  MET225      0.0596
     23  SD       -16.9880  -20.8600  213.8020 S.3   225  MET225     -0.1393
     24  CE       -17.0750  -22.6090  213.7800 C.3   225  MET225      0.0692
     25  N        -21.2810  -18.4600  217.0150 N.am  226  THR226     -0.1953
     26  CA       -21.4840  -17.0620  217.3700 C.3   226  THR226      0.1897
     27  C        -22.5700  -16.9850  218.4430 C.2   226  THR226      0.2313
     28  O        -23.1300  -15.9230  218.7160 O.2   226  THR226     -0.2863
     29  CB       -21.9140  -16.2080  216.1710 C.3   226  THR226      0.1794
     30  OG1      -23.2070  -16.6270  215.7230 O.3   226  THR226     -0.2208
     31  CG2      -20.9110  -16.3260  215.0510 C.3   226  THR226      0.0378
     32  N        -12.4660  -20.9070  220.7290 N.3   243  TRP243     -0.1241
     33  CA       -11.7400  -20.8380  219.4840 C.3   243  TRP243      0.1605
     34  C        -10.3230  -21.3540  219.6660 C.2   243  TRP243      0.2264
     35  O         -9.4420  -20.6410  220.1380 O.2   243  TRP243     -0.2867
     36  CB       -11.7630  -19.3960  218.9650 C.3   243  TRP243      0.0550
     37  CG       -10.9920  -19.1570  217.7100 C.ar  243  TRP243      0.0003
     38  CD1      -10.7600  -20.0470  216.7080 C.ar  243  TRP243      0.0946
     39  CD2      -10.3950  -17.9210  217.2950 C.ar  243  TRP243      0.0152
     40  NE1      -10.0550  -19.4480  215.6880 N.ar  243  TRP243     -0.2442
     41  CE2       -9.8180  -18.1410  216.0220 C.ar  243  TRP243      0.0810
     42  CE3      -10.2940  -16.6460  217.8730 C.ar  243  TRP243      0.0012
     43  CZ2       -9.1490  -17.1310  215.3140 C.ar  243  TRP243      0.0191
     44  CZ3       -9.6280  -15.6400  217.1670 C.ar  243  TRP243      0.0001
     45  CH2       -9.0660  -15.8930  215.9020 C.ar  243  TRP243      0.0015
     46  N        -10.3550  -14.5070  220.6980 N.3   252  CYS252     -0.1235
     47  CA       -11.4650  -13.6440  220.3330 C.3   252  CYS252      0.1677
     48  C        -11.4410  -12.2870  221.0100 C.2   252  CYS252      0.2270
     49  O        -12.0470  -11.3460  220.5080 O.2   252  CYS252     -0.2867
     50  CB       -12.8060  -14.3110  220.6140 C.3   252  CYS252      0.0956
     51  SG       -13.1560  -15.5360  219.3480 S.3   252  CYS252     -0.0801
     52  N         -8.4910   -9.5880  219.2400 N.3   255  GLU255     -0.1231
     53  CA        -9.1170   -8.9590  218.0860 C.3   255  GLU255      0.1699
     54  C        -10.5330   -8.8680  218.6090 C.2   255  GLU255      0.2592
     55  O        -10.8950   -9.6800  219.4450 O.2   255  GLU255     -0.2718
     56  CB        -9.0400   -9.8850  216.8610 C.3   255  GLU255      0.0402
     57  CG        -8.5390  -11.3100  217.1550 C.3   255  GLU255      0.1161
     58  CD        -8.3530  -12.1730  215.8970 C.2   255  GLU255      0.3649
     59  OE1       -9.3580  -12.5200  215.2310 O.co2 255  GLU255     -0.2457
     60  OE2       -7.1910  -12.5120  215.5790 O.co2 255  GLU255     -0.2457
     61  N        -11.3250   -7.9020  218.1540 N.am  256  ASP256     -0.1974
     62  CA       -12.7190   -7.7360  218.6290 C.3   256  ASP256      0.1709
     63  C        -12.8200   -6.7730  219.8280 C.2   256  ASP256      0.2293
     64  O        -13.9070   -6.4560  220.3050 O.2   256  ASP256     -0.2864
     65  CB       -13.3680   -9.0910  218.9550 C.3   256  ASP256      0.1436
     66  CG       -13.7490   -9.9010  217.6940 C.2   256  ASP256      0.3671
     67  OD1      -13.0220   -9.8420  216.6760 O.co2 256  ASP256     -0.2456
     68  OD2      -14.7740  -10.6210  217.7260 O.co2 256  ASP256     -0.2456
     69  N        -15.8810  -18.5410  220.1390 N.3   264  ARG264     -0.1231
     70  CA       -15.4220  -18.6590  218.7490 C.3   264  ARG264      0.1694
     71  C        -15.7870  -17.3080  218.1060 C.2   264  ARG264      0.2592
     72  O        -16.1050  -17.1950  216.9170 O.2   264  ARG264     -0.2718
     73  CB       -16.1510  -19.7840  218.0360 C.3   264  ARG264      0.0321
     74  CG       -15.5370  -20.1310  216.7110 C.3   264  ARG264      0.0489
     75  CD       -14.4650  -21.1760  216.8620 C.3   264  ARG264      0.2205
     76  NE       -13.8130  -21.4150  215.5860 N.pl3 264  ARG264     -0.0865
     77  CZ       -12.7790  -22.2290  215.4290 C.cat 264  ARG264      0.5346
     78  NH1      -12.3010  -22.8900  216.4710 N.pl3 264  ARG264      0.1354
     79  NH2      -12.1790  -22.3310  214.2520 N.pl3 264  ARG264      0.1354
     80  N        -15.7650  -16.3140  218.9940 N.am  265  CYS265     -0.1956
     81  CA       -16.0300  -14.9070  218.7760 C.3   265  CYS265      0.1843
     82  C        -17.4490  -14.4000  218.9460 C.2   265  CYS265      0.2625
     83  O        -17.9440  -14.4470  220.0630 O.2   265  CYS265     -0.2714
     84  CB       -15.3930  -14.4610  217.4860 C.3   265  CYS265      0.0997
     85  SG       -13.5670  -14.5060  217.6350 S.3   265  CYS265     -0.0797
     86  N        -18.1460  -13.9330  217.9170 N.am  266  HIS266     -0.1973
     87  CA       -19.4660  -13.3890  218.2520 C.3   266  HIS266      0.1656
     88  C        -20.5210  -13.0740  217.2050 C.2   266  HIS266      0.2291
     89  O        -20.2560  -13.0060  216.0080 O.2   266  HIS266     -0.2864
     90  CB       -19.2800  -12.0830  219.0170 C.3   266  HIS266      0.0771
     91  CG       -18.9560  -10.9250  218.1240 C.ar  266  HIS266      0.0820
     92  ND1      -17.6690  -10.6300  217.7280 N.ar  266  HIS266     -0.2267
     93  CD2      -19.7590  -10.0480  217.4730 C.ar  266  HIS266      0.1154
     94  CE1      -17.6930   -9.6240  216.8720 C.ar  266  HIS266      0.1986
     95  NE2      -18.9490   -9.2530  216.6980 N.ar  266  HIS266     -0.2212
     96  N        -10.8170   -7.7420  211.9860 N.3   289  THR289     -0.1203
     97  CA       -12.0080   -8.4710  212.4090 C.3   289  THR289      0.1994
     98  C        -13.1460   -7.5030  212.6410 C.2   289  THR289      0.2617
     99  O        -12.9590   -6.2870  212.5810 O.2   289  THR289     -0.2717
    100  CB       -11.7680   -9.2620  213.7020 C.3   289  THR289      0.1784
    101  OG1      -11.5260   -8.3540  214.7870 O.3   289  THR289     -0.2211
    102  CG2      -10.5720  -10.1890  213.5230 C.3   289  THR289      0.0376
    103  N        -14.3330   -8.0320  212.9020 N.am  290  ASP290     -0.1973
    104  CA       -15.4610   -7.1500  213.1290 C.3   290  ASP290      0.1709
    105  C        -15.5600   -6.6850  214.5830 C.2   290  ASP290      0.2293
    106  O        -16.5390   -6.9830  215.2810 O.2   290  ASP290     -0.2864
    107  CB       -16.7670   -7.8070  212.6480 C.3   290  ASP290      0.1436
    108  CG       -17.0020   -9.1760  213.2490 C.2   290  ASP290      0.3671
    109  OD1      -16.0430   -9.9790  213.3160 O.co2 290  ASP290     -0.2456
    110  OD2      -18.1600   -9.4510  213.6390 O.co2 290  ASP290     -0.2456
    111  N        -24.7140   -8.1440  214.8940 N.3   296  MET296     -0.1245
    112  CA       -24.9630   -8.7270  213.5820 C.3   296  MET296      0.1570
    113  C        -26.4270   -8.9210  213.2470 C.2   296  MET296      0.2261
    114  O        -26.8950   -8.4410  212.2160 O.2   296  MET296     -0.2867
    115  CB       -24.2150  -10.0520  213.4500 C.3   296  MET296      0.0387
    116  CG       -22.7160   -9.8790  213.3370 C.3   296  MET296      0.0595
    117  SD       -21.8680  -11.4450  213.4550 S.3   296  MET296     -0.1393
    118  CE       -21.7270  -11.8490  211.8140 C.3   296  MET296      0.0692
    119  N        -22.1030   -7.4350  210.5730 N.3   301  SER301     -0.1217
    120  CA       -20.8150   -7.3040  211.2340 C.3   301  SER301      0.1889
    121  C        -20.0720   -5.9840  211.1530 C.2   301  SER301      0.2288
    122  O        -19.2730   -5.7000  212.0470 O.2   301  SER301     -0.2866
    123  CB       -19.8620   -8.4070  210.7610 C.3   301  SER301      0.2089
    124  OG       -20.0470   -9.5960  211.5110 O.3   301  SER301     -0.2183
@<TRIPOS>BOND
     1    16    14   am
     2     3     2    1
     3     3     4    2
     4    14    15    2
     5    14    13    1
     6     2     1    1
     7     2     5    1
     8     8     6    1
     9    13    10    1
    10     5     6    1
    11     6     7    1
    12   119   120    1
    13   123   120    1
    14   123   124    1
    15   121   120    1
    16   121   122    2
    17     9    10    1
    18    10    11    1
    19   118   117    1
    20    96    97    1
    21   114   113    2
    22    11    12    2
    23    97    98    1
    24    97   100    1
    25    99    98    2
    26    98   103   am
    27   107   104    1
    28   107   108    1
    29   103   104    1
    30   104   105    1
    31   113   112    1
    32   108   109   ar
    33   108   110   ar
    34   116   115    1
    35   116   117    1
    36   115   112    1
    37   102   100    1
    38   112   111    1
    39   100   101    1
    40    24    23    1
    41    23    22    1
    42    79    77    1
    43    22    21    1
    44   105   106    2
    45    31    29    1
    46    59    58   ar
    47    43    45   ar
    48    43    41   ar
    49    77    76    2
    50    77    78    1
    51    60    58   ar
    52    76    75    1
    53    40    41   ar
    54    40    38   ar
    55    30    29    1
    56    58    57    1
    57    45    44   ar
    58    21    18    1
    59    89    88    2
    60    17    18    1
    61    41    39   ar
    62    29    26    1
    63    67    66   ar
    64    18    19    1
    65    95    94   ar
    66    95    93   ar
    67    38    37   ar
    68    74    75    1
    69    74    73    1
    70    56    57    1
    71    56    53    1
    72    94    92   ar
    73    72    71    2
    74    25    19   am
    75    25    26    1
    76    19    20    2
    77    44    42   ar
    78    88    87    1
    79    39    37   ar
    80    39    42   ar
    81    26    27    1
    82    93    91   ar
    83    84    85    1
    84    84    81    1
    85    85    51    1
    86    66    68   ar
    87    66    65    1
    88    37    36    1
    89    92    91   ar
    90    86    87    1
    91    86    82   am
    92    73    70    1
    93    53    54    1
    94    53    52    1
    95    71    70    1
    96    71    80   am
    97    91    90    1
    98    61    54   am
    99    61    62    1
   100    87    90    1
   101    27    28    2
   102    54    55    2
   103    62    65    1
   104    62    63    1
   105    70    69    1
   106    81    82    1
   107    81    80    1
   108    82    83    2
   109    36    33    1
   110    51    50    1
   111    33    34    1
   112    33    32    1
   113    34    35    2
   114    63    64    2
   115    47    50    1
   116    47    46    1
   117    47    48    1
   118    49    48    2
