@<TRIPOS>MOLECULE
tmp/1lwvC00.pdb
 134 124 0 0 0
SMALL
GASTEIGER

@<TRIPOS>ATOM
      1  N         25.0650   15.4650   31.4100 N.3    33  SER33      -0.1202
      2  CA        24.9870   16.8870   31.0930 C.3    33  SER33       0.2020
      3  C         23.8700   17.7380   31.6760 C.2    33  SER33       0.2619
      4  O         23.6170   18.8360   31.1840 O.2    33  SER33      -0.2717
      5  CB        25.0040   17.0660   29.5730 C.3    33  SER33       0.2103
      6  OG        26.2280   16.5990   29.0370 O.3    33  SER33      -0.2182
      7  N         23.2030   17.2570   32.7120 N.am   34  GLY34      -0.1942
      8  CA        22.1580   18.0650   33.3150 C.3    34  GLY34       0.2014
      9  C         20.7650   18.0650   32.7020 C.2    34  GLY34       0.2638
     10  O         20.0290   19.0380   32.8790 O.2    34  GLY34      -0.2714
     11  N         20.4060   17.0200   31.9560 N.am   35  GLN35      -0.1977
     12  CA        19.0550   16.9110   31.4050 C.3    35  GLN35       0.1601
     13  C         18.3430   16.0240   32.4320 C.2    35  GLN35       0.2287
     14  O         17.3980   16.4480   33.0900 O.2    35  GLN35      -0.2864
     15  CB        19.0620   16.2270   30.0400 C.3    35  GLN35       0.0394
     16  CG        19.5960   17.1050   28.9030 C.3    35  GLN35       0.0908
     17  CD        19.3570   16.4820   27.5630 C.2    35  GLN35       0.2608
     18  OE1       18.2740   15.9700   27.3060 O.2    35  GLN35      -0.2717
     19  NE2       20.3550   16.5250   26.6910 N.am   35  GLN35      -0.0878
     20  N         19.1210   13.5210   35.8140 N.3    37  PHE37      -0.1241
     21  CA        20.1530   13.3680   36.8250 C.3    37  PHE37       0.1605
     22  C         20.2820   11.9420   37.3400 C.2    37  PHE37       0.2264
     23  O         21.0480   11.6910   38.2550 O.2    37  PHE37      -0.2867
     24  CB        19.8790   14.3160   37.9980 C.3    37  PHE37       0.0534
     25  CG        19.8600   15.7670   37.6020 C.ar   37  PHE37      -0.0203
     26  CD1       18.6780   16.3700   37.1640 C.ar   37  PHE37      -0.0042
     27  CD2       21.0360   16.5170   37.6040 C.ar   37  PHE37      -0.0042
     28  CE1       18.6670   17.6890   36.7350 C.ar   37  PHE37      -0.0003
     29  CE2       21.0320   17.8520   37.1680 C.ar   37  PHE37      -0.0003
     30  CZ        19.8450   18.4350   36.7340 C.ar   37  PHE37      -0.0000
     31  N         14.1800   19.6420   38.2310 N.3   133  PHE133     -0.1241
     32  CA        14.6590   20.9780   37.9520 C.3   133  PHE133      0.1605
     33  C         14.2930   22.0080   39.0070 C.2   133  PHE133      0.2264
     34  O         14.9020   23.0790   39.0620 O.2   133  PHE133     -0.2867
     35  CB        14.2300   21.4230   36.5590 C.3   133  PHE133      0.0534
     36  CG        15.0970   20.8590   35.4780 C.ar  133  PHE133     -0.0203
     37  CD1       14.8490   19.5930   34.9550 C.ar  133  PHE133     -0.0042
     38  CD2       16.2260   21.5470   35.0560 C.ar  133  PHE133     -0.0042
     39  CE1       15.7210   19.0160   34.0320 C.ar  133  PHE133     -0.0003
     40  CE2       17.1050   20.9820   34.1370 C.ar  133  PHE133     -0.0003
     41  CZ        16.8510   19.7110   33.6260 C.ar  133  PHE133     -0.0000
     42  N         17.1580   22.2100   40.7350 N.3   136  SER136     -0.1217
     43  CA        18.3170   22.7270   40.0000 C.3   136  SER136      0.1889
     44  C         18.6650   24.2060   40.1730 C.2   136  SER136      0.2288
     45  O         19.8100   24.5900   39.9780 O.2   136  SER136     -0.2866
     46  CB        18.1640   22.4320   38.5010 C.3   136  SER136      0.2089
     47  OG        17.3240   23.3750   37.8480 O.3   136  SER136     -0.2183
     48  N         25.2040   20.9400   38.9300 N.3   141  ILE141     -0.1245
     49  CA        24.8180   19.6050   38.4980 C.3   141  ILE141      0.1561
     50  C         25.2450   18.4650   39.4230 C.2   141  ILE141      0.2260
     51  O         24.4920   17.5190   39.6210 O.2   141  ILE141     -0.2867
     52  CB        25.3380   19.3570   37.0630 C.3   141  ILE141      0.0252
     53  CG1       24.5730   20.2720   36.0990 C.3   141  ILE141      0.0019
     54  CG2       25.1640   17.8990   36.6680 C.3   141  ILE141      0.0019
     55  CD1       25.1040   20.2960   34.6730 C.3   141  ILE141      0.0001
     56  N         22.9730   18.7630   42.5490 N.3   144  ILE144     -0.1245
     57  CA        21.6120   18.4310   42.1650 C.3   144  ILE144      0.1561
     58  C         21.4660   16.9240   42.0340 C.2   144  ILE144      0.2260
     59  O         20.4490   16.3590   42.4340 O.2   144  ILE144     -0.2867
     60  CB        21.2370   19.0750   40.8140 C.3   144  ILE144      0.0252
     61  CG1       21.5660   20.5650   40.8240 C.3   144  ILE144      0.0019
     62  CG2       19.7490   18.9240   40.5650 C.3   144  ILE144      0.0019
     63  CD1       21.4290   21.2270   39.4560 C.3   144  ILE144      0.0001
     64  N         13.5790   29.7820   33.9330 N.3   238  LYS238     -0.1245
     65  CA        14.4790   28.6970   33.5520 C.3   238  LYS238      0.1561
     66  C         13.8800   27.3050   33.7100 C.2   238  LYS238      0.2260
     67  O         13.8260   26.5170   32.7530 O.2   238  LYS238     -0.2867
     68  CB        15.7800   28.7520   34.3560 C.3   238  LYS238      0.0271
     69  CG        16.6970   27.5910   33.9770 C.3   238  LYS238      0.0035
     70  CD        17.9800   27.5310   34.7560 C.3   238  LYS238      0.0206
     71  CE        18.6500   26.2010   34.4690 C.3   238  LYS238      0.1093
     72  NZ        20.0230   26.1000   35.0080 N.3   238  LYS238     -0.1314
     73  N         13.0520   24.5170   31.0310 N.3   242  CYS242     -0.1235
     74  CA        13.6370   23.1750   31.0270 C.3   242  CYS242      0.1677
     75  C         12.5240   22.1370   30.9180 C.2   242  CYS242      0.2270
     76  O         12.6110   21.2020   30.1270 O.2   242  CYS242     -0.2867
     77  CB        14.4590   22.9250   32.3010 C.3   242  CYS242      0.0956
     78  SG        15.9980   23.8830   32.4210 S.3   242  CYS242     -0.0801
     79  N         12.3730   19.6710   27.8660 N.3   246  MET246     -0.1245
     80  CA        12.7450   18.3000   28.1730 C.3   246  MET246      0.1570
     81  C         11.6450   17.2880   28.4410 C.2   246  MET246      0.2261
     82  O         11.8810   16.0860   28.3120 O.2   246  MET246     -0.2867
     83  CB        13.7280   18.3170   29.3520 C.3   246  MET246      0.0387
     84  CG        15.0390   19.0240   29.0170 C.3   246  MET246      0.0595
     85  SD        16.0960   19.2510   30.4440 S.3   246  MET246     -0.1393
     86  CE        16.8590   20.8200   30.0830 C.3   246  MET246      0.0692
     87  N         16.1650   27.2920   27.7990 N.3   255  PRO255     -0.2116
     88  CA        16.4260   27.6730   29.1940 C.3   255  PRO255      0.1372
     89  C         17.5680   28.6840   29.2770 C.2   255  PRO255      0.2244
     90  O         18.5730   28.5370   28.5860 O.2   255  PRO255     -0.2868
     91  CB        16.7960   26.3450   29.8650 C.3   255  PRO255      0.0268
     92  CG        16.2720   25.2790   28.9160 C.3   255  PRO255      0.0207
     93  CD        16.4720   25.8740   27.5540 C.3   255  PRO255      0.0892
     94  N         20.3340   30.3080   31.7340 N.3   257  ASP257     -0.1239
     95  CA        21.0580   30.1990   32.9870 C.3   257  ASP257      0.1674
     96  C         22.3660   30.9620   32.8630 C.2   257  ASP257      0.2266
     97  O         22.5640   31.7460   31.9380 O.2   257  ASP257     -0.2867
     98  CB        21.3780   28.7340   33.2720 C.3   257  ASP257      0.1410
     99  CG        22.4920   28.2130   32.3880 C.2   257  ASP257      0.3668
    100  OD1       22.4120   28.4090   31.1550 O.co2 257  ASP257     -0.2456
    101  OD2       23.4480   27.6100   32.9220 O.co2 257  ASP257     -0.2456
    102  N         24.2830   29.9120   29.5280 N.3   260  MET260     -0.1245
    103  CA        23.8260   30.5440   28.2960 C.3   260  MET260      0.1570
    104  C         24.1790   32.0260   28.2070 C.2   260  MET260      0.2261
    105  O         24.3160   32.5620   27.1070 O.2   260  MET260     -0.2867
    106  CB        22.3230   30.3360   28.1070 C.3   260  MET260      0.0387
    107  CG        21.9410   28.8700   27.8920 C.3   260  MET260      0.0595
    108  SD        23.0080   28.0790   26.6600 S.3   260  MET260     -0.1393
    109  CE        22.5510   29.0270   25.1910 C.3   260  MET260      0.0692
    110  N         20.6160   24.6680   21.7920 N.3   304  GLN304     -0.1231
    111  CA        21.0830   25.1670   23.0720 C.3   304  GLN304      0.1698
    112  C         21.7300   24.0510   23.8890 C.2   304  GLN304      0.2592
    113  O         22.7230   24.2800   24.5760 O.2   304  GLN304     -0.2718
    114  CB        19.9130   25.7730   23.8550 C.3   304  GLN304      0.0381
    115  CG        20.2150   26.0460   25.3160 C.3   304  GLN304      0.0905
    116  CD        19.8850   24.8690   26.2330 C.2   304  GLN304      0.2608
    117  OE1       20.2650   24.8680   27.4000 O.2   304  GLN304     -0.2717
    118  NE2       19.1670   23.8770   25.7130 N.am  304  GLN304     -0.0878
    119  N         21.1760   22.8440   23.8090 N.am  305  ALA305     -0.1980
    120  CA        21.7230   21.7280   24.5720 C.3   305  ALA305      0.1597
    121  C         23.1440   21.3920   24.1200 C.2   305  ALA305      0.2287
    122  O         24.0030   21.0220   24.9310 O.2   305  ALA305     -0.2864
    123  CB        20.8330   20.5100   24.4260 C.3   305  ALA305      0.0319
    124  N         25.4690   24.1540   25.5470 N.3   308  PHE308     -0.1241
    125  CA        25.4310   24.0660   27.0050 C.3   308  PHE308      0.1605
    126  C         26.2760   22.8970   27.4630 C.2   308  PHE308      0.2264
    127  O         27.1030   23.0190   28.3660 O.2   308  PHE308     -0.2867
    128  CB        24.0030   23.8550   27.5000 C.3   308  PHE308      0.0534
    129  CG        23.8890   23.7420   28.9920 C.ar  308  PHE308     -0.0203
    130  CD1       23.7140   24.8760   29.7780 C.ar  308  PHE308     -0.0042
    131  CD2       23.9600   22.4980   29.6170 C.ar  308  PHE308     -0.0042
    132  CE1       23.6100   24.7670   31.1730 C.ar  308  PHE308     -0.0003
    133  CE2       23.8580   22.3830   31.0080 C.ar  308  PHE308     -0.0003
    134  CZ        23.6840   23.5130   31.7840 C.ar  308  PHE308     -0.0000
@<TRIPOS>BOND
     1   110   111    1
     2   111   114    1
     3   111   112    1
     4   119   112   am
     5   119   120    1
     6   114   115    1
     7   112   113    2
     8   121   120    1
     9   121   122    2
    10   123   120    1
    11   109   108    1
    12   115   116    1
    13   124   125    1
    14   118   116   am
    15   116   117    2
    16   108   107    1
    17    19    17   am
    18   125   126    1
    19   125   128    1
    20   105   104    2
    21    18    17    2
    22   126   127    2
    23   128   129    1
    24    93    87    1
    25    93    92    1
    26    17    16    1
    27    87    88    1
    28    79    80    1
    29   107   106    1
    30   106   103    1
    31    80    81    1
    32    80    83    1
    33   104   103    1
    34   103   102    1
    35    82    81    2
    36    90    89    2
    37    16    15    1
    38    92    91    1
    39   129   131   ar
    40   129   130   ar
    41    84    83    1
    42    84    85    1
    43     6     5    1
    44    88    89    1
    45    88    91    1
    46     5     2    1
    47   131   133   ar
    48   130   132   ar
    49    15    12    1
    50    86    85    1
    51    76    75    2
    52    75    74    1
    53   133   134   ar
    54    74    73    1
    55    74    77    1
    56     2     1    1
    57     2     3    1
    58   100    99   ar
    59   132   134   ar
    60     4     3    2
    61    12    11    1
    62    12    13    1
    63     3     7   am
    64    94    95    1
    65    97    96    2
    66    11     9   am
    67    77    78    1
    68    99   101   ar
    69    99    98    1
    70    13    14    2
    71     9    10    2
    72     9     8    1
    73     7     8    1
    74    67    66    2
    75    96    95    1
    76    95    98    1
    77    65    66    1
    78    65    64    1
    79    65    68    1
    80    41    39   ar
    81    41    40   ar
    82    69    68    1
    83    69    70    1
    84    39    37   ar
    85    40    38   ar
    86    71    70    1
    87    71    72    1
    88    55    53    1
    89    37    36   ar
    90    38    36   ar
    91    36    35    1
    92    20    21    1
    93    53    52    1
    94    35    32    1
    95    54    52    1
    96    30    28   ar
    97    30    29   ar
    98    28    26   ar
    99    21    22    1
   100    21    24    1
   101    52    49    1
   102    26    25   ar
   103    29    27   ar
   104    22    23    2
   105    25    27   ar
   106    25    24    1
   107    47    46    1
   108    32    31    1
   109    32    33    1
   110    49    48    1
   111    49    50    1
   112    46    43    1
   113    33    34    2
   114    50    51    2
   115    63    61    1
   116    45    44    2
   117    43    44    1
   118    43    42    1
   119    62    60    1
   120    60    61    1
   121    60    57    1
   122    58    57    1
   123    58    59    2
   124    57    56    1
