@<TRIPOS>MOLECULE
tmp/1lwxA00.pdb
 141 133 0 0 0
SMALL
GASTEIGER

@<TRIPOS>ATOM
      1  N         71.5950   32.4680   10.8940 N.3    11  LYS11      -0.1245
      2  CA        72.2750   33.6630   10.4340 C.3    11  LYS11       0.1561
      3  C         72.2040   34.7930   11.4190 C.2    11  LYS11       0.2260
      4  O         71.3620   34.7790   12.2940 O.2    11  LYS11      -0.2867
      5  CB        71.7520   34.0070    9.0340 C.3    11  LYS11       0.0271
      6  CG        72.1130   32.8890    8.0310 C.3    11  LYS11       0.0035
      7  CD        71.3820   33.0020    6.7280 C.3    11  LYS11       0.0206
      8  CE        71.7030   34.2940    6.0100 C.3    11  LYS11       0.1093
      9  NZ        70.8280   35.4000    6.4940 N.3    11  LYS11      -0.1314
     10  N         77.3050   30.8810   -0.9360 N.3    51  TYR51      -0.1241
     11  CA        76.1850   31.2810   -1.7650 C.3    51  TYR51       0.1605
     12  C         76.6240   31.5490   -3.2370 C.2    51  TYR51       0.2264
     13  O         76.1050   32.4680   -3.8930 O.2    51  TYR51      -0.2867
     14  CB        75.5250   32.5340   -1.1470 C.3    51  TYR51       0.0534
     15  CG        74.7170   32.3310    0.1370 C.ar   51  TYR51      -0.0201
     16  CD1       73.8350   31.2560    0.2750 C.ar   51  TYR51      -0.0009
     17  CD2       74.7540   33.2890    1.1630 C.ar   51  TYR51      -0.0009
     18  CE1       72.9970   31.1420    1.4030 C.ar   51  TYR51       0.0417
     19  CE2       73.9180   33.1950    2.2790 C.ar   51  TYR51       0.0417
     20  CZ        73.0400   32.1220    2.3970 C.ar   51  TYR51       0.1957
     21  OH        72.1970   32.0360    3.4880 O.3    51  TYR51      -0.2866
     22  N         75.9660   30.0670   -6.1050 N.3    53  GLU53      -0.1231
     23  CA        74.8530   29.9680   -7.0630 C.3    53  GLU53       0.1699
     24  C         74.0750   31.2760   -7.2710 C.2    53  GLU53       0.2592
     25  O         73.3100   31.3860   -8.2280 O.2    53  GLU53      -0.2718
     26  CB        73.8730   28.8740   -6.6290 C.3    53  GLU53       0.0402
     27  CG        73.1240   29.1600   -5.2970 C.3    53  GLU53       0.1161
     28  CD        71.9920   28.1490   -4.9910 C.2    53  GLU53       0.3649
     29  OE1       71.1240   27.9390   -5.8560 O.co2  53  GLU53      -0.2457
     30  OE2       71.9830   27.5970   -3.8640 O.co2  53  GLU53      -0.2457
     31  N         74.2270   32.2380   -6.3610 N.am   54  HIS54      -0.1976
     32  CA        73.5110   33.5070   -6.4700 C.3    54  HIS54       0.1656
     33  C         74.4650   34.6590   -6.7830 C.2    54  HIS54       0.2291
     34  O         74.0860   35.8190   -6.6420 O.2    54  HIS54      -0.2864
     35  CB        72.7480   33.8300   -5.1600 C.3    54  HIS54       0.0771
     36  CG        71.7990   32.7580   -4.7230 C.ar   54  HIS54       0.0820
     37  ND1       70.6720   32.4220   -5.4410 N.ar   54  HIS54      -0.2267
     38  CD2       71.8290   31.9210   -3.6590 C.ar   54  HIS54       0.1154
     39  CE1       70.0500   31.4210   -4.8460 C.ar   54  HIS54       0.1986
     40  NE2       70.7350   31.0970   -3.7610 N.ar   54  HIS54      -0.2212
     41  N         70.1820   40.5710   -5.3910 N.3    59  PHE59      -0.1241
     42  CA        70.3060   40.5520   -3.9390 C.3    59  PHE59       0.1605
     43  C         71.6190   39.9870   -3.3870 C.2    59  PHE59       0.2264
     44  O         71.8790   40.1190   -2.1900 O.2    59  PHE59      -0.2867
     45  CB        69.1460   39.7500   -3.3530 C.3    59  PHE59       0.0534
     46  CG        69.1120   38.3220   -3.8170 C.ar   59  PHE59      -0.0203
     47  CD1       69.9080   37.3540   -3.2000 C.ar   59  PHE59      -0.0042
     48  CD2       68.3060   37.9450   -4.8920 C.ar   59  PHE59      -0.0042
     49  CE1       69.9130   36.0150   -3.6440 C.ar   59  PHE59      -0.0003
     50  CE2       68.2980   36.6180   -5.3520 C.ar   59  PHE59      -0.0003
     51  CZ        69.1080   35.6480   -4.7240 C.ar   59  PHE59      -0.0000
     52  N         73.7250   42.2650   -1.4430 N.3    62  GLY62      -0.1210
     53  CA        72.9900   42.5070   -0.2100 C.3    62  GLY62       0.1956
     54  C         73.0230   41.3610    0.7840 C.2    62  GLY62       0.2611
     55  O         73.0060   41.5890    1.9990 O.2    62  GLY62      -0.2717
     56  N         73.0930   40.1350    0.2690 N.am   63  LEU63      -0.1979
     57  CA        73.1210   38.9170    1.0890 C.3    63  LEU63       0.1596
     58  C         74.4890   38.7190    1.7360 C.2    63  LEU63       0.2287
     59  O         74.6090   38.5610    2.9510 O.2    63  LEU63      -0.2864
     60  CB        72.7840   37.7130    0.2050 C.3    63  LEU63       0.0297
     61  CG        72.8250   36.2670    0.6990 C.3    63  LEU63       0.0022
     62  CD1       71.9420   36.0310    1.9420 C.3    63  LEU63       0.0001
     63  CD2       72.3530   35.4210   -0.4740 C.3    63  LEU63       0.0001
     64  N         64.5910   20.8990    5.5890 N.3    87  ARG87      -0.1245
     65  CA        64.1130   21.8940    4.6390 C.3    87  ARG87       0.1563
     66  C         62.6360   22.1340    4.8690 C.2    87  ARG87       0.2260
     67  O         62.1520   23.2750    4.8730 O.2    87  ARG87      -0.2867
     68  CB        64.3670   21.3780    3.2450 C.3    87  ARG87       0.0307
     69  CG        65.6730   21.8680    2.7260 C.3    87  ARG87       0.0489
     70  CD        65.3600   23.0160    1.8660 C.3    87  ARG87       0.2205
     71  NE        66.3710   24.0460    1.9520 N.pl3  87  ARG87      -0.0865
     72  CZ        66.5500   24.9590    1.0160 C.cat  87  ARG87       0.5346
     73  NH1       65.7840   24.9390   -0.0760 N.pl3  87  ARG87       0.1354
     74  NH2       67.5020   25.8680    1.1680 N.pl3  87  ARG87       0.1354
     75  N         59.6490   27.7120    3.4110 N.3    92  VAL92      -0.1231
     76  CA        60.0560   28.0310    2.0390 C.3    92  VAL92       0.1692
     77  C         60.8770   29.3260    2.0220 C.2    92  VAL92       0.2592
     78  O         61.2230   29.8380    3.0900 O.2    92  VAL92      -0.2718
     79  CB        58.8510   28.0620    1.0270 C.3    92  VAL92       0.0266
     80  CG1       58.2080   26.7070    0.9580 C.3    92  VAL92       0.0020
     81  CG2       57.8100   29.0880    1.4110 C.3    92  VAL92       0.0020
     82  N         61.2590   29.7950    0.8300 N.am   93  THR93      -0.1953
     83  CA        62.0800   31.0100    0.6340 C.3    93  THR93       0.1897
     84  C         61.4680   32.3250    1.1350 C.2    93  THR93       0.2313
     85  O         62.1740   33.1820    1.6580 O.2    93  THR93      -0.2863
     86  CB        62.4810   31.1490   -0.8640 C.3    93  THR93       0.1794
     87  OG1       62.8820   29.8610   -1.3480 O.3    93  THR93      -0.2208
     88  CG2       63.6480   32.1100   -1.0430 C.3    93  THR93       0.0378
     89  N         60.8500   29.4100    9.6170 N.3   104  ARG104     -0.1245
     90  CA        60.5180   30.6880    8.9830 C.3   104  ARG104      0.1563
     91  C         59.0430   31.0620    9.1160 C.2   104  ARG104      0.2260
     92  O         58.7090   32.2270    9.2730 O.2   104  ARG104     -0.2867
     93  CB        60.9360   30.6770    7.5170 C.3   104  ARG104      0.0307
     94  CG        62.4500   30.7550    7.2990 C.3   104  ARG104      0.0489
     95  CD        62.8100   30.4600    5.8410 C.3   104  ARG104      0.2205
     96  NE        64.2270   30.7020    5.5630 N.pl3 104  ARG104     -0.0865
     97  CZ        64.8720   30.2920    4.4690 C.cat 104  ARG104      0.5346
     98  NH1       64.2310   29.6160    3.5370 N.pl3 104  ARG104      0.1354
     99  NH2       66.1620   30.5600    4.3110 N.pl3 104  ARG104      0.1354
    100  N         62.2890   37.9930    3.1530 N.3   111  VAL111     -0.1231
    101  CA        63.2250   37.0350    2.5250 C.3   111  VAL111      0.1692
    102  C         64.6540   37.4440    2.8550 C.2   111  VAL111      0.2592
    103  O         65.5530   36.6030    2.8730 O.2   111  VAL111     -0.2718
    104  CB        63.1630   36.9860    0.9510 C.3   111  VAL111      0.0266
    105  CG1       62.2020   35.9550    0.4830 C.3   111  VAL111      0.0020
    106  CG2       62.8210   38.3430    0.3840 C.3   111  VAL111      0.0020
    107  N         64.8520   38.7520    3.0220 N.am  112  GLY112     -0.1957
    108  CA        66.1560   39.3190    3.3400 C.3   112  GLY112      0.1869
    109  C         66.6880   38.9430    4.7070 C.2   112  GLY112      0.2309
    110  O         67.9010   39.0030    4.9360 O.2   112  GLY112     -0.2863
    111  N         65.9860   35.8170    6.4990 N.3   114  ALA114     -0.1245
    112  CA        65.4500   34.4600    6.4560 C.3   114  ALA114      0.1562
    113  C         65.7750   33.5550    7.6250 C.2   114  ALA114      0.2260
    114  O         65.4270   32.3830    7.6030 O.2   114  ALA114     -0.2867
    115  CB        65.8500   33.7940    5.1430 C.3   114  ALA114      0.0290
    116  N         67.5010   31.2670    8.8440 N.3   116  ILE116     -0.1231
    117  CA        68.3090   30.0730    8.7490 C.3   116  ILE116      0.1692
    118  C         68.4660   29.5650    7.3350 C.2   116  ILE116      0.2592
    119  O         67.5540   29.6530    6.5120 O.2   116  ILE116     -0.2718
    120  CB        67.6910   28.9610    9.5940 C.3   116  ILE116      0.0266
    121  CG1       68.5220   27.6900    9.5400 C.3   116  ILE116      0.0019
    122  CG2       66.3170   28.6610    9.1110 C.3   116  ILE116      0.0020
    123  CD1       67.9760   26.5940   10.4390 C.3   116  ILE116      0.0001
    124  N         69.6540   29.0590    7.0630 N.am  117  HIS117     -0.1976
    125  CA        69.9670   28.4770    5.7880 C.3   117  HIS117      0.1656
    126  C         70.0020   26.9670    6.0040 C.2   117  HIS117      0.2291
    127  O         70.5650   26.4830    6.9650 O.2   117  HIS117     -0.2864
    128  CB        71.3350   28.9620    5.3290 C.3   117  HIS117      0.0771
    129  CG        72.0340   27.9830    4.4430 C.ar  117  HIS117      0.0820
    130  ND1       71.8640   27.9720    3.0770 N.ar  117  HIS117     -0.2267
    131  CD2       72.8050   26.9120    4.7380 C.ar  117  HIS117      0.1154
    132  CE1       72.4890   26.9260    2.5700 C.ar  117  HIS117      0.1986
    133  NE2       73.0660   26.2660    3.5580 N.ar  117  HIS117     -0.2212
    134  N         69.9010   22.4040    0.4220 N.3   120  ASP120     -0.1239
    135  CA        68.7230   21.9460   -0.3290 C.3   120  ASP120      0.1674
    136  C         68.7690   20.5750   -0.9700 C.2   120  ASP120      0.2266
    137  O         67.7520   20.0870   -1.4580 O.2   120  ASP120     -0.2867
    138  CB        68.2600   23.0020   -1.3380 C.3   120  ASP120      0.1410
    139  CG        69.3010   23.3350   -2.3670 C.2   120  ASP120      0.3668
    140  OD1       70.0920   22.4530   -2.7370 O.co2 120  ASP120     -0.2456
    141  OD2       69.3100   24.4910   -2.8430 O.co2 120  ASP120     -0.2456
@<TRIPOS>BOND
     1    25    24    2
     2    24    23    1
     3    24    31   am
     4    23    26    1
     5    23    22    1
     6    33    34    2
     7    33    32    1
     8    26    27    1
     9    32    31    1
    10    32    35    1
    11    29    28   ar
    12    37    39   ar
    13    37    36   ar
    14    41    42    1
    15    50    48   ar
    16    50    51   ar
    17    27    28    1
    18    35    36    1
    19    28    30   ar
    20    48    46   ar
    21    39    40   ar
    22    51    49   ar
    23    36    38   ar
    24    42    43    1
    25    42    45    1
    26    13    12    2
    27    46    45    1
    28    46    47   ar
    29    40    38   ar
    30    49    47   ar
    31    43    44    2
    32    12    11    1
    33   141   139   ar
    34   140   139   ar
    35   139   138    1
    36    11    14    1
    37    11    10    1
    38   137   136    2
    39    52    53    1
    40    87    86    1
    41   138   135    1
    42    14    15    1
    43    88    86    1
    44   136   135    1
    45    86    83    1
    46    63    61    1
    47   135   134    1
    48    53    54    1
    49    73    72    1
    50    15    16   ar
    51    15    17   ar
    52    60    61    1
    53    60    57    1
    54    56    54   am
    55    56    57    1
    56    16    18   ar
    57   106   104    1
    58   105   104    1
    59    83    82    1
    60    83    84    1
    61    61    62    1
    62    54    55    2
    63    82    77   am
    64   104   101    1
    65    80    79    1
    66    72    74    1
    67    72    71    2
    68    79    81    1
    69    79    76    1
    70    57    58    1
    71    84    85    2
    72    17    19   ar
    73    18    20   ar
    74    58    59    2
    75    70    71    1
    76    70    69    1
    77    77    76    1
    78    77    78    2
    79    76    75    1
    80    19    20   ar
    81    20    21    1
    82   101   102    1
    83   101   100    1
    84   132   130   ar
    85   132   133   ar
    86    69    68    1
    87   102   103    2
    88   102   107   am
    89   107   108    1
    90   130   129   ar
    91    68    65    1
    92   108   109    1
    93    98    97    1
    94   133   131   ar
    95    99    97    1
    96   129   131   ar
    97   129   128    1
    98    97    96    2
    99    65    66    1
   100    65    64    1
   101   109   110    2
   102    66    67    2
   103   115   112    1
   104   128   125    1
   105    96    95    1
   106   125   126    1
   107   125   124    1
   108    95    94    1
   109   126   127    2
   110     8     9    1
   111     8     7    1
   112   112   111    1
   113   112   113    1
   114   119   118    2
   115     7     6    1
   116   124   118   am
   117    94    93    1
   118   118   117    1
   119    93    90    1
   120   114   113    2
   121     6     5    1
   122   117   116    1
   123   117   120    1
   124    90    91    1
   125    90    89    1
   126     5     2    1
   127   122   120    1
   128    91    92    2
   129   121   120    1
   130   121   123    1
   131     2     1    1
   132     2     3    1
   133     3     4    2
