@<TRIPOS>MOLECULE
tmp/1lx5A00.pdb
 104 99 0 0 0
SMALL
GASTEIGER

@<TRIPOS>ATOM
      1  N         73.3530   28.8500   56.2040 N.3     3  CYS3       -0.1221
      2  CA        73.9140   29.5820   55.0800 C.3     3  CYS3        0.1808
      3  C         75.0090   30.4050   55.6780 C.2     3  CYS3        0.2601
      4  O         74.7830   31.0010   56.6790 O.2     3  CYS3       -0.2717
      5  CB        72.8170   30.4920   54.5250 C.3     3  CYS3        0.0970
      6  SG        73.3360   31.9170   53.5340 S.3     3  CYS3       -0.0800
      7  N         76.1990   30.4250   55.0950 N.am    4  LYS4       -0.1965
      8  CA        77.3460   31.1730   55.6610 C.3     4  LYS4        0.1728
      9  C         78.2490   31.5610   54.4810 C.2     4  LYS4        0.2616
     10  O         78.1030   30.9220   53.4630 O.2     4  LYS4       -0.2715
     11  CB        78.1210   30.3450   56.7250 C.3     4  LYS4        0.0311
     12  CG        76.8090   30.3090   58.1040 C.3     4  LYS4        0.0038
     13  CD        77.5290   29.8520   59.3610 C.3     4  LYS4        0.0206
     14  CE        76.5590   29.6540   60.5120 C.3     4  LYS4        0.1093
     15  NZ        77.2510   29.2070   61.7510 N.3     4  LYS4       -0.1314
     16  N         79.1210   32.5920   54.5960 N.am    5  LYS5       -0.1977
     17  CA        80.0760   32.9750   53.5310 C.3     5  LYS5        0.1600
     18  C         81.1910   32.0440   53.7920 C.2     5  LYS5        0.2287
     19  O         81.3510   31.6770   54.8950 O.2     5  LYS5       -0.2864
     20  CB        80.5140   34.4170   53.7320 C.3     5  LYS5        0.0344
     21  CG        81.8730   34.8680   53.2720 C.3     5  LYS5        0.0297
     22  CD        82.0770   36.4160   53.5270 C.2     5  LYS5       -0.0067
     23  CE        83.5160   36.8500   54.0210 C.2     5  LYS5        0.1012
     24  NZ        83.8660   38.3420   54.3230 N.pl3   5  LYS5       -0.1270
     25  N         85.3780   30.8250   52.5400 N.3     7  GLU7       -0.1245
     26  CA        86.5210   31.3220   51.7520 C.3     7  GLU7        0.1567
     27  C         86.7180   30.6380   50.4530 C.2     7  GLU7        0.2260
     28  O         86.3350   29.5250   50.2910 O.2     7  GLU7       -0.2867
     29  CB        87.7940   31.2030   52.5140 C.3     7  GLU7        0.0388
     30  CG        87.5870   31.8520   53.8590 C.3     7  GLU7        0.1160
     31  CD        88.8690   31.9640   54.6600 C.2     7  GLU7        0.3649
     32  OE1       89.7950   31.1410   54.4100 O.co2   7  GLU7       -0.2457
     33  OE2       88.9390   32.8640   55.5520 O.co2   7  GLU7       -0.2457
     34  N         85.4320   34.2780   47.7440 N.3    30  TYR30      -0.1241
     35  CA        84.4290   33.8020   48.6640 C.3    30  TYR30       0.1605
     36  C         83.2130   33.3110   47.9630 C.2    30  TYR30       0.2264
     37  O         83.1720   33.2980   46.7670 O.2    30  TYR30      -0.2867
     38  CB        84.0490   34.9540   49.5460 C.3    30  TYR30       0.0534
     39  CG        85.1290   35.5030   50.4790 C.ar   30  TYR30      -0.0201
     40  CD1       85.5550   34.7990   51.5840 C.ar   30  TYR30      -0.0009
     41  CD2       85.6300   36.7670   50.2980 C.ar   30  TYR30      -0.0009
     42  CE1       86.4520   35.3330   52.4630 C.ar   30  TYR30       0.0417
     43  CE2       86.5220   37.3160   51.1860 C.ar   30  TYR30       0.0417
     44  CZ        86.9360   36.6010   52.2620 C.ar   30  TYR30       0.1957
     45  OH        87.8870   37.1470   53.0850 O.3    30  TYR30      -0.2866
     46  N         70.4740   37.0680   60.7960 N.3    43  TYR43      -0.1231
     47  CA        71.6960   36.4660   60.2890 C.3    43  TYR43       0.1694
     48  C         71.4040   35.4940   59.1620 C.2    43  TYR43       0.2592
     49  O         72.0770   34.4890   59.0640 O.2    43  TYR43      -0.2718
     50  CB        72.4560   35.7100   61.3900 C.3    43  TYR43       0.0304
     51  CG        74.3350   34.9830   61.2880 C.ar   43  TYR43       0.0002
     52  CD1       74.7320   34.0520   60.3030 C.ar   43  TYR43       0.0033
     53  CD2       75.3770   35.6630   62.0100 C.ar   43  TYR43       0.0033
     54  CE1       76.1170   33.7790   60.0050 C.ar   43  TYR43       0.0420
     55  CE2       76.8030   35.4020   61.7250 C.ar   43  TYR43       0.0420
     56  CZ        77.1370   34.4440   60.6970 C.ar   43  TYR43       0.1957
     57  OH        78.4420   34.1110   60.3390 O.3    43  TYR43      -0.2866
     58  N         70.3710   35.7230   58.3630 N.am   44  MET44      -0.1965
     59  CA        70.1410   34.9020   57.2030 C.3    44  MET44       0.1736
     60  C         69.7760   35.9780   56.2330 C.2    44  MET44       0.2616
     61  O         69.3580   35.7330   55.1070 O.2    44  MET44      -0.2715
     62  CB        68.9970   33.9120   57.3810 C.3    44  MET44       0.0427
     63  CG        69.2500   32.8640   58.3680 C.3    44  MET44       0.0599
     64  SD        70.6740   31.7920   58.0830 S.3    44  MET44      -0.1393
     65  CE        69.8940   30.6320   57.0700 C.3    44  MET44       0.0692
     66  N         69.9020   37.2040   56.6960 N.am   45  ASN45      -0.1972
     67  CA        69.6290   38.3510   55.8740 C.3    45  ASN45       0.1688
     68  C         68.6810   38.0100   54.7850 C.2    45  ASN45       0.2292
     69  O         68.9890   38.1500   53.6520 O.2    45  ASN45      -0.2864
     70  CB        70.9390   38.8230   55.3560 C.3    45  ASN45       0.1181
     71  CG        71.9770   38.8390   56.4600 C.2    45  ASN45       0.2629
     72  OD1       71.6170   39.0070   57.6240 O.2    45  ASN45      -0.2716
     73  ND2       73.2530   38.6490   56.1340 N.am   45  ASN45      -0.0877
     74  N         75.7890   41.1720   49.3060 N.3    73  GLN73      -0.1245
     75  CA        76.6750   42.2690   49.4560 C.3    73  GLN73       0.1566
     76  C         78.0280   41.8470   48.8960 C.2    73  GLN73       0.2260
     77  O         78.6830   40.8980   49.3600 O.2    73  GLN73      -0.2867
     78  CB        76.7220   42.5480   50.9210 C.3    73  GLN73       0.0367
     79  CG        77.0640   43.9240   51.2100 C.3    73  GLN73       0.0905
     80  CD        76.1860   44.4890   52.2930 C.2    73  GLN73       0.2608
     81  OE1       76.6580   44.8480   53.4140 O.2    73  GLN73      -0.2717
     82  NE2       74.8830   44.5950   51.9710 N.am   73  GLN73      -0.0878
     83  N         80.7330   40.1200   50.2280 N.3    99  ARG99      -0.1231
     84  CA        80.9450   40.6860   51.5750 C.3    99  ARG99       0.1694
     85  C         80.0880   39.9920   52.5590 C.2    99  ARG99       0.2592
     86  O         80.5490   39.7280   53.6490 O.2    99  ARG99      -0.2718
     87  CB        80.7720   42.2070   51.6730 C.3    99  ARG99       0.0321
     88  CG        80.4350   42.7930   52.9660 C.3    99  ARG99       0.0489
     89  CD        79.9990   44.2410   52.8150 C.3    99  ARG99       0.2205
     90  NE        79.8850   44.9280   54.0980 N.pl3  99  ARG99      -0.0865
     91  CZ        79.4440   46.1730   54.2390 C.cat  99  ARG99       0.5346
     92  NH1       79.0730   46.8730   53.1760 N.pl3  99  ARG99       0.1354
     93  NH2       79.3700   46.7190   55.4450 N.pl3  99  ARG99       0.1354
     94  N         78.8590   39.6560   52.1620 N.am  100  ALA100     -0.1966
     95  CA        77.9470   38.9610   53.0690 C.3   100  ALA100      0.1728
     96  C         76.9260   38.1670   52.3160 C.2   100  ALA100      0.2616
     97  O         76.5690   38.6010   51.2060 O.2   100  ALA100     -0.2715
     98  CB        77.2640   39.9350   53.9250 C.3   100  ALA100      0.0334
     99  N         76.4240   37.0700   52.9390 N.am  101  CYS101     -0.1968
    100  CA        75.4310   36.1370   52.3280 C.3   101  CYS101      0.1712
    101  C         74.0410   36.2410   52.9040 C.2   101  CYS101      0.2296
    102  O         73.8580   36.8820   53.8890 O.2   101  CYS101     -0.2864
    103  CB        75.8620   34.7290   52.6310 C.3   101  CYS101      0.0983
    104  SG        77.4070   34.2840   51.8720 S.3   101  CYS101     -0.0798
@<TRIPOS>BOND
     1    37    36    2
     2    34    35    1
     3    36    35    1
     4    35    38    1
     5    76    77    2
     6    76    75    1
     7    74    75    1
     8    75    78    1
     9    38    39    1
    10    83    84    1
    11    28    27    2
    12    41    39   ar
    13    41    43   ar
    14    27    26    1
    15    39    40   ar
    16    78    79    1
    17    43    44   ar
    18    97    96    2
    19    79    80    1
    20    84    87    1
    21    84    85    1
    22    40    42   ar
    23    87    88    1
    24    26    29    1
    25    26    25    1
    26   104   103    1
    27    82    80   am
    28    94    85   am
    29    94    95    1
    30    44    42   ar
    31    44    45    1
    32    80    81    2
    33    96    99   am
    34    96    95    1
    35   100   103    1
    36   100   101    1
    37   100    99    1
    38    29    30    1
    39    85    86    2
    40    89    88    1
    41    89    90    1
    42   101   102    2
    43    95    98    1
    44    92    91    1
    45    21    22    1
    46    21    20    1
    47    10     9    2
    48    22    23    2
    49    17    20    1
    50    17    18    1
    51    17    16    1
    52     6     5    1
    53    69    68    2
    54    18    19    2
    55    30    31    1
    56    23    24    1
    57    90    91    2
    58    91    93    1
    59    32    31   ar
    60     9    16   am
    61     9     8    1
    62     5     2    1
    63    31    33   ar
    64    68    67    1
    65     2     3    1
    66     2     1    1
    67     7     8    1
    68     7     3   am
    69    61    60    2
    70    70    67    1
    71    70    71    1
    72     8    11    1
    73     3     4    2
    74    67    66    1
    75    73    71   am
    76    60    66   am
    77    60    59    1
    78    71    72    2
    79    11    12    1
    80    65    64    1
    81    59    62    1
    82    59    58    1
    83    62    63    1
    84    64    63    1
    85    12    13    1
    86    58    48   am
    87    49    48    2
    88    48    47    1
    89    13    14    1
    90    54    52   ar
    91    54    56   ar
    92    47    46    1
    93    47    50    1
    94    52    51   ar
    95    57    56    1
    96    14    15    1
    97    56    55   ar
    98    51    53   ar
    99    55    53   ar
