@<TRIPOS>MOLECULE
tmp/1lx6B01.pdb
 132 126 0 0 0
SMALL
GASTEIGER

@<TRIPOS>ATOM
      1  N        -16.2020   47.9350  153.6420 N.3    19  ILE19      -0.1245
      2  CA       -15.9650   48.4190  152.2860 C.3    19  ILE19       0.1561
      3  C        -17.1980   48.2430  151.4310 C.2    19  ILE19       0.2260
      4  O        -17.5520   49.1230  150.6610 O.2    19  ILE19      -0.2867
      5  CB       -14.7430   47.7150  151.6500 C.3    19  ILE19       0.0252
      6  CG1      -13.4510   48.4130  152.0970 C.3    19  ILE19       0.0019
      7  CG2      -14.8590   47.6870  150.1420 C.3    19  ILE19       0.0019
      8  CD1      -12.2060   47.8210  151.5310 C.3    19  ILE19       0.0001
      9  N        -13.2260   38.0570  153.0600 N.3    92  GLY92      -0.1210
     10  CA       -11.8280   37.6770  153.1890 C.3    92  GLY92       0.1956
     11  C        -11.6030   37.1470  154.5800 C.2    92  GLY92       0.2612
     12  O        -12.2080   37.6620  155.5240 O.2    92  GLY92      -0.2717
     13  N        -10.7460   36.1440  154.7340 N.am   93  PHE93      -0.1962
     14  CA       -10.5020   35.6120  156.0570 C.3    93  PHE93       0.1771
     15  C         -9.2250   34.8170  156.2600 C.2    93  PHE93       0.2619
     16  O         -8.8230   34.0240  155.4320 O.2    93  PHE93      -0.2715
     17  CB       -11.6700   34.7510  156.4520 C.3    93  PHE93       0.0574
     18  CG       -11.5410   34.1600  157.8080 C.ar   93  PHE93      -0.0200
     19  CD1      -11.6950   34.9450  158.9350 C.ar   93  PHE93      -0.0042
     20  CD2      -11.2990   32.8120  157.9630 C.ar   93  PHE93      -0.0042
     21  CE1      -11.6110   34.3880  160.2030 C.ar   93  PHE93      -0.0003
     22  CE2      -11.2130   32.2590  159.2100 C.ar   93  PHE93      -0.0003
     23  CZ       -11.3740   33.0550  160.3410 C.ar   93  PHE93      -0.0000
     24  N         -8.6090   35.0270  157.4070 N.am   94  ALA94      -0.1977
     25  CA        -7.4050   34.3090  157.8090 C.3    94  ALA94       0.1597
     26  C         -7.4560   34.2330  159.3330 C.2    94  ALA94       0.2287
     27  O         -7.7450   35.2330  160.0050 O.2    94  ALA94      -0.2864
     28  CB        -6.1330   35.0450  157.3570 C.3    94  ALA94       0.0319
     29  N         -6.6680   34.1530  163.1930 N.3    96  GLY96      -0.1225
     30  CA        -5.8530   35.0640  163.9960 C.3    96  GLY96       0.1811
     31  C         -4.3390   34.9180  164.0030 C.2    96  GLY96       0.2280
     32  O         -3.5950   35.8420  163.6300 O.2    96  GLY96      -0.2866
     33  N         -1.8240   36.2380  160.7170 N.3    99  LEU99      -0.1245
     34  CA        -1.3350   37.5600  160.3870 C.3    99  LEU99       0.1561
     35  C         -0.4880   38.2000  161.4730 C.2    99  LEU99       0.2260
     36  O         -0.5570   39.3950  161.7260 O.2    99  LEU99      -0.2867
     37  CB        -2.5060   38.4560  159.9900 C.3    99  LEU99       0.0270
     38  CG        -3.4320   37.9140  158.8860 C.3    99  LEU99       0.0019
     39  CD1       -2.7870   36.8150  158.0340 C.3    99  LEU99       0.0001
     40  CD2       -4.6690   37.3660  159.5260 C.3    99  LEU99       0.0001
     41  N         -5.5350   43.3140  147.6450 N.3   145  TYR145     -0.1241
     42  CA        -4.6300   44.2370  148.3120 C.3   145  TYR145      0.1605
     43  C         -3.2180   44.0300  147.7760 C.2   145  TYR145      0.2264
     44  O         -2.8810   42.9410  147.3210 O.2   145  TYR145     -0.2867
     45  CB        -4.6520   44.0070  149.8320 C.3   145  TYR145      0.0534
     46  CG        -3.7130   44.9060  150.5970 C.ar  145  TYR145     -0.0201
     47  CD1       -3.8600   46.2960  150.5670 C.ar  145  TYR145     -0.0009
     48  CD2       -2.6640   44.3730  151.3240 C.ar  145  TYR145     -0.0009
     49  CE1       -2.9750   47.1350  151.2500 C.ar  145  TYR145      0.0417
     50  CE2       -1.7630   45.1990  152.0160 C.ar  145  TYR145      0.0417
     51  CZ        -1.9190   46.5710  151.9740 C.ar  145  TYR145      0.1957
     52  OH        -0.9930   47.3650  152.6180 O.3   145  TYR145     -0.2866
     53  N          4.2900   42.1310  152.2990 N.3   152  ILE152     -0.1231
     54  CA         4.0750   43.1350  153.3200 C.3   152  ILE152      0.1678
     55  C          4.1270   42.4070  154.6590 C.2   152  ILE152      0.2434
     56  O          3.5320   41.3290  154.8350 O.2   152  ILE152     -0.2733
     57  CB         2.7390   43.8630  153.0710 C.3   152  ILE152      0.0265
     58  CG1        2.8480   44.6480  151.7610 C.3   152  ILE152      0.0019
     59  CG2        2.3450   44.7570  154.2370 C.3   152  ILE152      0.0020
     60  CD1        1.5730   45.2880  151.3260 C.3   152  ILE152      0.0001
     61  N          4.8920   42.9500  155.6060 N.am  153  PRO153     -0.2718
     62  CA         5.0360   42.3510  156.9350 C.3   153  PRO153      0.1535
     63  C          3.7090   42.0700  157.6250 C.2   153  PRO153      0.2599
     64  O          2.8110   42.8890  157.6170 O.2   153  PRO153     -0.2715
     65  CB         5.8220   43.4150  157.6910 C.3   153  PRO153      0.0310
     66  CG         6.6470   44.0340  156.6010 C.3   153  PRO153      0.0237
     67  CD         5.6540   44.2020  155.5080 C.3   153  PRO153      0.0939
     68  N          3.5930   40.9030  158.2300 N.am  154  ASN154     -0.1959
     69  CA         2.3720   40.5300  158.9500 C.3   154  ASN154      0.1819
     70  C          1.1900   40.1430  158.0820 C.2   154  ASN154      0.2621
     71  O          0.3350   39.3970  158.5390 O.2   154  ASN154     -0.2715
     72  CB         1.9660   41.6160  159.9560 C.3   154  ASN154      0.1195
     73  CG         2.9640   41.7610  161.0820 C.2   154  ASN154      0.2630
     74  OD1        3.3030   40.7900  161.7380 O.2   154  ASN154     -0.2716
     75  ND2        3.4470   42.9670  161.3020 N.am  154  ASN154     -0.0877
     76  N          1.1490   40.5960  156.8260 N.am  155  TYR155     -0.1974
     77  CA         0.0260   40.2480  155.9370 C.3   155  TYR155      0.1639
     78  C          0.0610   38.7640  155.6410 C.2   155  TYR155      0.2290
     79  O         -0.9510   38.1350  155.3520 O.2   155  TYR155     -0.2864
     80  CB         0.0710   41.0600  154.6430 C.3   155  TYR155      0.0560
     81  CG        -1.2580   41.1030  153.9460 C.ar  155  TYR155     -0.0198
     82  CD1       -2.3400   41.7540  154.5300 C.ar  155  TYR155     -0.0009
     83  CD2       -1.4470   40.4670  152.7230 C.ar  155  TYR155     -0.0009
     84  CE1       -3.5740   41.7710  153.9200 C.ar  155  TYR155      0.0417
     85  CE2       -2.6800   40.4750  152.0980 C.ar  155  TYR155      0.0417
     86  CZ        -3.7400   41.1270  152.7090 C.ar  155  TYR155      0.1957
     87  OH        -4.9840   41.1290  152.1260 O.3   155  TYR155     -0.2866
     88  N         -2.2070   35.9070  153.8670 N.3   158  MET158     -0.1245
     89  CA        -3.2400   36.6570  153.1760 C.3   158  MET158      0.1570
     90  C         -2.7090   37.1690  151.8330 C.2   158  MET158      0.2261
     91  O         -3.4540   37.2660  150.8650 O.2   158  MET158     -0.2867
     92  CB        -3.7580   37.8160  154.0340 C.3   158  MET158      0.0387
     93  CG        -4.8850   37.4400  154.9670 C.3   158  MET158      0.0595
     94  SD        -6.3920   36.8300  154.1420 S.3   158  MET158     -0.1393
     95  CE        -6.8960   38.2810  153.2740 C.3   158  MET158      0.0692
     96  N         -4.4590   36.5450  148.2020 N.3   162  LYS162     -0.1245
     97  CA        -4.8190   37.6630  147.3440 C.3   162  LYS162      0.1561
     98  C         -4.2640   37.4050  145.9340 C.2   162  LYS162      0.2260
     99  O         -4.9000   37.7880  144.9380 O.2   162  LYS162     -0.2867
    100  CB        -4.2650   38.9700  147.8990 C.3   162  LYS162      0.0271
    101  CG        -5.0190   39.4690  149.1030 C.3   162  LYS162      0.0035
    102  CD        -6.5330   39.4130  148.8620 C.3   162  LYS162      0.0206
    103  CE        -7.2990   40.4240  149.7090 C.3   162  LYS162      0.1093
    104  NZ        -8.7800   40.2270  149.6500 N.3   162  LYS162     -0.1314
    105  N         -7.4920   47.8610  146.7980 N.3   188  ALA188     -0.1245
    106  CA        -7.6990   49.0590  147.6010 C.3   188  ALA188      0.1562
    107  C         -6.5870   49.3120  148.5770 C.2   188  ALA188      0.2260
    108  O         -5.9870   48.3820  149.0990 O.2   188  ALA188     -0.2867
    109  CB        -9.0270   48.9430  148.3650 C.3   188  ALA188      0.0290
    110  N         -5.0400   50.5920  152.1810 N.3   190  PRO190     -0.2102
    111  CA        -5.5360   50.2770  153.5230 C.3   190  PRO190      0.1504
    112  C         -6.4240   51.3990  154.0310 C.2   190  PRO190      0.2575
    113  O         -6.0240   52.5600  154.0490 O.2   190  PRO190     -0.2718
    114  CB        -4.2550   50.1570  154.3220 C.3   190  PRO190      0.0282
    115  CG        -3.3630   51.1940  153.6740 C.3   190  PRO190      0.0208
    116  CD        -3.6160   50.9790  152.2020 C.3   190  PRO190      0.0893
    117  N         -7.6580   51.0420  154.3600 N.am  191  ILE191     -0.1980
    118  CA        -8.6360   52.0060  154.8440 C.3   191  ILE191      0.1595
    119  C         -8.4240   52.2750  156.3450 C.2   191  ILE191      0.2287
    120  O         -8.2580   51.2800  157.1210 O.2   191  ILE191     -0.2864
    121  CB       -10.0790   51.5090  154.6160 C.3   191  ILE191      0.0276
    122  CG1      -10.2040   50.7680  153.2800 C.3   191  ILE191      0.0022
    123  CG2      -11.0220   52.6900  154.6570 C.3   191  ILE191      0.0022
    124  CD1      -10.7020   51.5940  152.1200 C.3   191  ILE191      0.0001
    125  N          0.8260   52.3330  160.0740 N.3   192  MET192     -0.1245
    126  CA         0.8140   51.9940  158.6640 C.3   192  MET192      0.1570
    127  C          0.1060   53.1150  157.8980 C.2   192  MET192      0.2261
    128  O          0.6990   53.6780  156.9930 O.2   192  MET192     -0.2867
    129  CB         0.0490   50.7230  158.4650 C.3   192  MET192      0.0387
    130  CG         0.3160   50.1790  157.1310 C.3   192  MET192      0.0595
    131  SD        -0.8200   48.8480  156.9450 S.3   192  MET192     -0.1393
    132  CE        -2.2460   49.5690  156.8680 C.3   192  MET192      0.0692
@<TRIPOS>BOND
     1    99    98    2
     2    98    97    1
     3   105   106    1
     4    44    43    2
     5    97   100    1
     6    97    96    1
     7   106   109    1
     8   106   107    1
     9    41    42    1
    10    43    42    1
    11   100   101    1
    12    42    45    1
    13   107   108    2
    14   102   101    1
    15   102   103    1
    16   104   103    1
    17    45    46    1
    18     7     5    1
    19    47    46   ar
    20    47    49   ar
    21    46    48   ar
    22     4     3    2
    23    91    90    2
    24    49    51   ar
    25    48    50   ar
    26    60    58    1
    27     3     2    1
    28     8     6    1
    29     5     6    1
    30     5     2    1
    31    58    57    1
    32    90    89    1
    33    51    50   ar
    34    51    52    1
    35    85    86   ar
    36    85    83   ar
    37   124   122    1
    38    87    86    1
    39   110   116    1
    40   110   111    1
    41   116   115    1
    42     2     1    1
    43    53    54    1
    44    86    84   ar
    45    83    81   ar
    46     9    10    1
    47    57    54    1
    48    57    59    1
    49    89    88    1
    50    89    92    1
    51    10    11    1
    52    95    94    1
    53   122   121    1
    54    54    55    1
    55   111   112    1
    56   111   114    1
    57   115   114    1
    58    84    82   ar
    59    81    82   ar
    60    81    80    1
    61   112   113    2
    62   112   117   am
    63    92    93    1
    64    94    93    1
    65   117   118    1
    66    11    13   am
    67    11    12    2
    68   121   123    1
    69   121   118    1
    70    80    77    1
    71    55    56    2
    72    55    61   am
    73    13    14    1
    74   118   119    1
    75    79    78    2
    76    16    15    2
    77    67    61    1
    78    67    66    1
    79    61    62    1
    80    78    77    1
    81    77    76    1
    82    14    15    1
    83    14    17    1
    84    15    24   am
    85   119   120    2
    86    17    18    1
    87    66    65    1
    88    76    70   am
    89   132   131    1
    90    62    63    1
    91    62    65    1
    92   131   130    1
    93   128   127    2
    94   130   129    1
    95    28    25    1
    96    24    25    1
    97    64    63    2
    98    63    68   am
    99    18    20   ar
   100    18    19   ar
   101    25    26    1
   102   127   126    1
   103    20    22   ar
   104    39    38    1
   105    70    71    2
   106    70    69    1
   107    68    69    1
   108   129   126    1
   109   126   125    1
   110    38    40    1
   111    38    37    1
   112    19    21   ar
   113    69    72    1
   114    22    23   ar
   115    26    27    2
   116    72    73    1
   117    37    34    1
   118    21    23   ar
   119    34    33    1
   120    34    35    1
   121    73    75   am
   122    73    74    2
   123    35    36    2
   124    29    30    1
   125    32    31    2
   126    30    31    1
