@<TRIPOS>MOLECULE
tmp/1lxcB01.pdb
 138 133 0 0 0
SMALL
GASTEIGER

@<TRIPOS>ATOM
      1  N        -12.9670   38.3610  152.5970 N.3    92  GLY92      -0.1210
      2  CA       -11.5800   37.9940  152.8140 C.3    92  GLY92       0.1956
      3  C        -11.3380   37.5330  154.2370 C.2    92  GLY92       0.2612
      4  O        -11.7190   38.2190  155.1950 O.2    92  GLY92      -0.2717
      5  N        -10.7000   36.3750  154.3850 N.am   93  PHE93      -0.1962
      6  CA       -10.4390   35.8470  155.7130 C.3    93  PHE93       0.1771
      7  C         -9.2660   34.8860  155.8340 C.2    93  PHE93       0.2619
      8  O         -9.0380   34.0400  154.9750 O.2    93  PHE93      -0.2715
      9  CB       -11.6910   35.1530  156.2470 C.3    93  PHE93       0.0574
     10  CG       -11.4950   34.4970  157.5860 C.ar   93  PHE93      -0.0200
     11  CD1      -11.5040   35.2510  158.7540 C.ar   93  PHE93      -0.0042
     12  CD2      -11.2890   33.1260  157.6760 C.ar   93  PHE93      -0.0042
     13  CE1      -11.3150   34.6500  159.9930 C.ar   93  PHE93      -0.0003
     14  CE2      -11.0960   32.5150  158.9040 C.ar   93  PHE93      -0.0003
     15  CZ       -11.1090   33.2780  160.0690 C.ar   93  PHE93      -0.0000
     16  N         -8.5460   35.0310  156.9390 N.am   94  ALA94      -0.1977
     17  CA        -7.4090   34.1900  157.2840 C.3    94  ALA94       0.1597
     18  C         -7.4740   33.9980  158.8020 C.2    94  ALA94       0.2287
     19  O         -7.8070   34.9270  159.5400 O.2    94  ALA94      -0.2864
     20  CB        -6.1010   34.8730  156.8960 C.3    94  ALA94       0.0319
     21  N         -6.8260   34.3660  162.3480 N.3    96  GLY96      -0.1225
     22  CA        -6.0450   35.3780  163.0510 C.3    96  GLY96       0.1811
     23  C         -4.5470   35.1700  163.2510 C.2    96  GLY96       0.2280
     24  O         -3.7440   36.0530  162.9390 O.2    96  GLY96      -0.2866
     25  N         -1.8340   36.3810  160.3550 N.3    99  LEU99      -0.1245
     26  CA        -1.3550   37.7050  159.9870 C.3    99  LEU99       0.1561
     27  C         -0.5090   38.4090  161.0320 C.2    99  LEU99       0.2260
     28  O         -0.7600   39.5640  161.3690 O.2    99  LEU99      -0.2867
     29  CB        -2.5310   38.6090  159.6010 C.3    99  LEU99       0.0270
     30  CG        -3.5810   38.0980  158.6060 C.3    99  LEU99       0.0019
     31  CD1       -2.9260   37.2710  157.5130 C.3    99  LEU99       0.0001
     32  CD2       -4.6000   37.2590  159.3480 C.3    99  LEU99       0.0001
     33  N         -5.6290   43.4160  147.3500 N.3   145  TYR145     -0.1241
     34  CA        -4.7110   44.3420  147.9940 C.3   145  TYR145      0.1605
     35  C         -3.3040   44.1410  147.4450 C.2   145  TYR145      0.2264
     36  O         -3.0010   43.0880  146.8820 O.2   145  TYR145     -0.2867
     37  CB        -4.7280   44.1120  149.5100 C.3   145  TYR145      0.0534
     38  CG        -3.7460   44.9670  150.2600 C.ar  145  TYR145     -0.0201
     39  CD1       -3.7980   46.3510  150.1680 C.ar  145  TYR145     -0.0009
     40  CD2       -2.7480   44.3910  151.0470 C.ar  145  TYR145     -0.0009
     41  CE1       -2.8840   47.1490  150.8350 C.ar  145  TYR145      0.0417
     42  CE2       -1.8220   45.1810  151.7260 C.ar  145  TYR145      0.0417
     43  CZ        -1.8970   46.5630  151.6140 C.ar  145  TYR145      0.1957
     44  OH        -0.9950   47.3720  152.2770 O.3   145  TYR145     -0.2866
     45  N          4.3770   42.0640  151.8080 N.3   152  ILE152     -0.1231
     46  CA         4.1060   43.0610  152.8430 C.3   152  ILE152      0.1678
     47  C          4.0940   42.4140  154.2280 C.2   152  ILE152      0.2434
     48  O          3.3400   41.4720  154.4750 O.2   152  ILE152     -0.2733
     49  CB         2.7360   43.7420  152.5960 C.3   152  ILE152      0.0265
     50  CG1        2.7660   44.4710  151.2510 C.3   152  ILE152      0.0019
     51  CG2        2.3890   44.6890  153.7470 C.3   152  ILE152      0.0020
     52  CD1        1.4930   45.2220  150.9330 C.3   152  ILE152      0.0001
     53  N          4.9120   42.9310  155.1600 N.am  153  PRO153     -0.2718
     54  CA         4.9910   42.3940  156.5250 C.3   153  PRO153      0.1535
     55  C          3.6290   42.1150  157.1670 C.2   153  PRO153      0.2599
     56  O          2.6890   42.8900  157.0190 O.2   153  PRO153     -0.2715
     57  CB         5.7660   43.4770  157.2800 C.3   153  PRO153      0.0310
     58  CG         6.6450   44.0720  156.2190 C.3   153  PRO153      0.0237
     59  CD         5.6940   44.1770  155.0480 C.3   153  PRO153      0.0939
     60  N          3.5430   40.9930  157.8710 N.am  154  ASN154     -0.1959
     61  CA         2.3310   40.5760  158.5730 C.3   154  ASN154      0.1819
     62  C          1.1200   40.1920  157.7230 C.2   154  ASN154      0.2621
     63  O          0.2460   39.4670  158.1990 O.2   154  ASN154     -0.2715
     64  CB         1.9330   41.6470  159.5920 C.3   154  ASN154      0.1195
     65  CG         2.9930   41.8450  160.6620 C.2   154  ASN154      0.2630
     66  OD1        3.3910   40.8940  161.3400 O.2   154  ASN154     -0.2716
     67  ND2        3.4570   43.0760  160.8170 N.am  154  ASN154     -0.0877
     68  N          1.0620   40.6600  156.4780 N.am  155  TYR155     -0.1974
     69  CA        -0.0640   40.3290  155.6030 C.3   155  TYR155      0.1639
     70  C          0.0210   38.8490  155.2840 C.2   155  TYR155      0.2290
     71  O         -0.9670   38.2040  154.9560 O.2   155  TYR155     -0.2864
     72  CB        -0.0020   41.1410  154.3090 C.3   155  TYR155      0.0560
     73  CG        -1.3170   41.1680  153.5690 C.ar  155  TYR155     -0.0198
     74  CD1       -2.4560   41.7200  154.1620 C.ar  155  TYR155     -0.0009
     75  CD2       -1.4440   40.6060  152.2990 C.ar  155  TYR155     -0.0009
     76  CE1       -3.6890   41.7080  153.5100 C.ar  155  TYR155      0.0417
     77  CE2       -2.6750   40.5870  151.6410 C.ar  155  TYR155      0.0417
     78  CZ        -3.7900   41.1360  152.2550 C.ar  155  TYR155      0.1957
     79  OH        -5.0130   41.0940  151.6280 O.3   155  TYR155     -0.2866
     80  N         -2.3080   35.9390  153.4730 N.3   158  MET158     -0.1245
     81  CA        -3.3420   36.6390  152.7250 C.3   158  MET158      0.1570
     82  C         -2.7640   37.0960  151.3960 C.2   158  MET158      0.2261
     83  O         -3.4770   37.1650  150.3940 O.2   158  MET158     -0.2867
     84  CB        -3.8680   37.8420  153.5060 C.3   158  MET158      0.0387
     85  CG        -4.9580   37.4920  154.5020 C.3   158  MET158      0.0595
     86  SD        -6.3880   36.6450  153.7560 S.3   158  MET158     -0.1393
     87  CE        -6.8300   37.7840  152.4350 C.3   158  MET158      0.0692
     88  N         -4.5480   36.4920  147.9460 N.3   162  LYS162     -0.1245
     89  CA        -4.9430   37.5780  147.0600 C.3   162  LYS162      0.1561
     90  C         -4.3720   37.3800  145.6500 C.2   162  LYS162      0.2260
     91  O         -5.0060   37.7530  144.6490 O.2   162  LYS162     -0.2867
     92  CB        -4.4900   38.9250  147.6350 C.3   162  LYS162      0.0271
     93  CG        -5.2910   39.3820  148.8570 C.3   162  LYS162      0.0035
     94  CD        -6.7740   39.5220  148.5180 C.3   162  LYS162      0.0206
     95  CE        -7.5470   40.2550  149.6040 C.3   162  LYS162      0.1093
     96  NZ        -9.0080   40.2760  149.3050 N.3   162  LYS162     -0.1314
     97  N         -4.8710   50.7800  151.7430 N.3   190  PRO190     -0.2102
     98  CA        -5.3220   50.5380  153.1130 C.3   190  PRO190      0.1504
     99  C         -6.3900   51.5190  153.6110 C.2   190  PRO190      0.2575
    100  O         -6.3610   52.7090  153.3000 O.2   190  PRO190     -0.2718
    101  CB        -4.0250   50.6170  153.9180 C.3   190  PRO190      0.0282
    102  CG        -3.1930   51.5750  153.1230 C.3   190  PRO190      0.0208
    103  CD        -3.4390   51.1160  151.7100 C.3   190  PRO190      0.0893
    104  N         -7.3320   50.9880  154.3850 N.am  191  ILE191     -0.1980
    105  CA        -8.4330   51.7550  154.9590 C.3   191  ILE191      0.1595
    106  C         -8.7560   51.1270  156.3140 C.2   191  ILE191      0.2287
    107  O         -8.8950   49.9060  156.4110 O.2   191  ILE191     -0.2864
    108  CB        -9.7200   51.6580  154.0960 C.3   191  ILE191      0.0276
    109  CG1       -9.4400   52.0830  152.6530 C.3   191  ILE191      0.0022
    110  CG2      -10.8180   52.5400  154.6990 C.3   191  ILE191      0.0022
    111  CD1      -10.6130   51.8420  151.7190 C.3   191  ILE191      0.0001
    112  N        -13.3280   47.1100  159.8000 N.3   194  LEU194     -0.1245
    113  CA       -13.4780   45.9030  160.6140 C.3   194  LEU194      0.1561
    114  C        -12.7570   44.7020  159.9880 C.2   194  LEU194      0.2260
    115  O        -11.5810   44.4440  160.2680 O.2   194  LEU194     -0.2867
    116  CB       -14.9750   45.5970  160.7970 C.3   194  LEU194      0.0270
    117  CG       -15.4370   44.3330  161.5340 C.3   194  LEU194      0.0019
    118  CD1      -14.7240   44.2080  162.8810 C.3   194  LEU194      0.0001
    119  CD2      -16.9550   44.3880  161.7210 C.3   194  LEU194      0.0001
    120  N         -1.6970   49.4750  162.6790 N.3   195  PHE195     -0.1241
    121  CA        -2.4360   49.9010  161.5040 C.3   195  PHE195      0.1605
    122  C         -2.4160   51.4280  161.3940 C.2   195  PHE195      0.2264
    123  O         -2.4080   51.9780  160.2890 O.2   195  PHE195     -0.2867
    124  CB        -3.8820   49.4040  161.5830 C.3   195  PHE195      0.0534
    125  CG        -4.5240   49.2060  160.2410 C.ar  195  PHE195     -0.0203
    126  CD1       -4.3070   48.0330  159.5170 C.ar  195  PHE195     -0.0042
    127  CD2       -5.3240   50.2010  159.6810 C.ar  195  PHE195     -0.0042
    128  CE1       -4.8770   47.8520  158.2510 C.ar  195  PHE195     -0.0003
    129  CE2       -5.8970   50.0310  158.4150 C.ar  195  PHE195     -0.0003
    130  CZ        -5.6720   48.8540  157.7000 C.ar  195  PHE195     -0.0000
    131  N          0.8430   52.6240  160.0430 N.3   198  MET198     -0.1245
    132  CA         0.9490   52.3080  158.6220 C.3   198  MET198      0.1570
    133  C          0.2620   53.3740  157.7760 C.2   198  MET198      0.2261
    134  O          0.8030   53.8280  156.7640 O.2   198  MET198     -0.2867
    135  CB         0.3180   50.9470  158.3130 C.3   198  MET198      0.0387
    136  CG         0.2000   50.6790  156.8140 C.3   198  MET198      0.0595
    137  SD        -0.6270   49.1350  156.4120 S.3   198  MET198     -0.1393
    138  CE        -2.3020   49.5210  156.9130 C.3   198  MET198      0.0692
@<TRIPOS>BOND
     1    91    90    2
     2    90    89    1
     3    36    35    2
     4    89    92    1
     5    89    88    1
     6    33    34    1
     7    35    34    1
     8    92    93    1
     9    34    37    1
    10    94    93    1
    11    94    95    1
    12    96    95    1
    13    37    38    1
    14    39    38   ar
    15    39    41   ar
    16    38    40   ar
    17    83    82    2
    18    41    43   ar
    19    52    50    1
    20    40    42   ar
    21    50    49    1
    22    82    81    1
    23    43    42   ar
    24    43    44    1
    25    79    78    1
    26    77    78   ar
    27    77    75   ar
    28   103    97    1
    29   103   102    1
    30   111   109    1
    31    97    98    1
    32    45    46    1
    33    78    76   ar
    34    75    73   ar
    35    87    86    1
    36    49    46    1
    37    49    51    1
    38     1     2    1
    39   109   108    1
    40    81    80    1
    41    81    84    1
    42     2     3    1
    43    46    47    1
    44    98    99    1
    45    98   101    1
    46   102   101    1
    47   100    99    2
    48    84    85    1
    49    76    74   ar
    50    73    74   ar
    51    73    72    1
    52    99   104   am
    53    86    85    1
    54   108   110    1
    55   108   105    1
    56    47    48    2
    57    47    53   am
    58     3     5   am
    59     3     4    2
    60    72    69    1
    61     5     6    1
    62   104   105    1
    63    71    70    2
    64   105   106    1
    65     8     7    2
    66    59    53    1
    67    59    58    1
    68    53    54    1
    69    70    69    1
    70    69    68    1
    71     6     7    1
    72     6     9    1
    73     7    16   am
    74    58    57    1
    75     9    10    1
    76   106   107    2
    77   137   136    1
    78   137   138    1
    79    68    62   am
    80    54    55    1
    81    54    57    1
    82   134   133    2
    83   136   135    1
    84    20    17    1
    85    16    17    1
    86    56    55    2
    87    55    60   am
    88    17    18    1
    89    31    30    1
    90    10    12   ar
    91    10    11   ar
    92    12    14   ar
    93   130   128   ar
    94   130   129   ar
    95    62    63    2
    96    62    61    1
    97   133   132    1
    98    60    61    1
    99   128   126   ar
   100   135   132    1
   101   129   127   ar
   102    61    64    1
   103    30    32    1
   104    30    29    1
   105   132   131    1
   106    11    13   ar
   107    18    19    2
   108    14    15   ar
   109   126   125   ar
   110    64    65    1
   111    29    26    1
   112   127   125   ar
   113   112   113    1
   114    26    25    1
   115    26    27    1
   116   114   115    2
   117   114   113    1
   118    13    15   ar
   119   125   124    1
   120   123   122    2
   121   113   116    1
   122    65    67   am
   123    65    66    2
   124   116   117    1
   125    27    28    2
   126   122   121    1
   127   121   124    1
   128   121   120    1
   129   117   119    1
   130   117   118    1
   131    21    22    1
   132    24    23    2
   133    22    23    1
