@<TRIPOS>MOLECULE
tmp/1lxiA00.pdb
 90 87 0 0 0
SMALL
GASTEIGER

@<TRIPOS>ATOM
      1  N         -7.8400   90.8470   17.1270 N.3     3  CYS3       -0.1221
      2  CA        -6.8550   89.8680   16.5570 C.3     3  CYS3        0.1808
      3  C         -5.9140   89.3320   17.6610 C.2     3  CYS3        0.2601
      4  O         -5.2680   90.1520   18.2810 O.2     3  CYS3       -0.2717
      5  CB        -6.0340   90.6220   15.5200 C.3     3  CYS3        0.0970
      6  SG        -4.6950   89.6470   14.8470 S.3     3  CYS3       -0.0800
      7  N         -5.8530   87.9990   17.9190 N.am    4  LYS4       -0.1965
      8  CA        -4.9720   87.3190   18.8880 C.3     4  LYS4        0.1728
      9  C         -4.7820   85.8110   18.4700 C.2     4  LYS4        0.2616
     10  O         -5.4910   85.3340   17.5880 O.2     4  LYS4       -0.2715
     11  CB        -5.5580   87.3560   20.3220 C.3     4  LYS4        0.0311
     12  CG        -7.0200   86.9180   20.5220 C.3     4  LYS4        0.0038
     13  CD        -7.4580   87.0820   22.0470 C.3     4  LYS4        0.0206
     14  CE        -8.7380   86.2650   22.4540 C.3     4  LYS4        0.1093
     15  NZ       -10.1350   86.9000   22.1240 N.3     4  LYS4       -0.1314
     16  N         -3.8320   85.1540   19.1310 N.am    5  LYS5       -0.1977
     17  CA        -3.5150   83.7500   18.9150 C.3     5  LYS5        0.1596
     18  C         -4.4340   82.9320   19.7700 C.2     5  LYS5        0.2287
     19  O         -4.7060   83.3010   20.9070 O.2     5  LYS5       -0.2864
     20  CB        -2.0650   83.4830   19.3460 C.3     5  LYS5        0.0298
     21  CG        -1.6930   81.9520   19.4480 C.3     5  LYS5        0.0038
     22  CD        -0.1400   81.9470   19.6080 C.3     5  LYS5        0.0206
     23  CE         0.3250   82.0130   21.0250 C.3     5  LYS5        0.1093
     24  NZ         1.8310   82.1120   21.0410 N.3     5  LYS5       -0.1314
     25  N          0.4120   95.9530   20.4250 N.3    43  TYR43      -0.1227
     26  CA         0.3890   94.4620   20.6210 C.3    43  TYR43       0.1736
     27  C         -0.2010   93.6210   19.4330 C.2    43  TYR43       0.2595
     28  O         -0.0080   92.3690   19.2890 O.2    43  TYR43      -0.2718
     29  CB        -0.4620   94.1500   21.8850 C.3    43  TYR43       0.0548
     30  CG        -0.6750   92.6670   22.2080 C.ar   43  TYR43      -0.0200
     31  CD1       -1.9420   92.0630   22.0850 C.ar   43  TYR43      -0.0009
     32  CD2        0.4010   91.8570   22.6530 C.ar   43  TYR43      -0.0009
     33  CE1       -2.1120   90.6970   22.3890 C.ar   43  TYR43       0.0417
     34  CE2        0.2270   90.4780   22.9680 C.ar   43  TYR43       0.0417
     35  CZ        -1.0280   89.9300   22.8260 C.ar   43  TYR43       0.1957
     36  OH        -1.2390   88.6230   23.0950 O.3    43  TYR43      -0.2866
     37  N         -0.9370   94.3550   18.6010 N.am   44  MET44      -0.1965
     38  CA        -1.6140   93.7930   17.4350 C.3    44  MET44       0.1736
     39  C         -0.6820   93.8360   16.2380 C.2    44  MET44       0.2616
     40  O         -1.0740   93.4870   15.1290 O.2    44  MET44      -0.2715
     41  CB        -2.9790   94.5100   17.2460 C.3    44  MET44       0.0427
     42  CG        -4.0340   93.9510   18.1080 C.3    44  MET44       0.0599
     43  SD        -5.1420   95.2590   18.6870 S.3    44  MET44      -0.1393
     44  CE        -6.2910   95.2510   17.5270 C.3    44  MET44       0.0692
     45  N          0.5100   94.3890   16.4600 N.am   45  ASN45      -0.1972
     46  CA         1.5300   94.3800   15.4430 C.3    45  ASN45       0.1688
     47  C          1.1040   94.8030   14.0690 C.2    45  ASN45       0.2292
     48  O          1.3200   94.0970   13.0550 O.2    45  ASN45      -0.2864
     49  CB         2.0700   92.9050   15.3500 C.3    45  ASN45       0.1181
     50  CG         2.5070   92.3810   16.6870 C.2    45  ASN45       0.2629
     51  OD1        3.0920   93.1410   17.4370 O.2    45  ASN45      -0.2716
     52  ND2        2.1600   91.1110   17.0360 N.am   45  ASN45      -0.0877
     53  N          2.4010   86.2250   12.2240 N.3    72  THR72      -0.1203
     54  CA         3.6150   86.9650   11.9140 C.3    72  THR72       0.1994
     55  C          4.8970   86.1500   12.1550 C.2    72  THR72       0.2617
     56  O          5.9420   86.5230   11.6550 O.2    72  THR72      -0.2717
     57  CB         3.7320   88.1820   12.7140 C.3    72  THR72       0.1784
     58  OG1        3.7420   87.8280   14.0990 O.3    72  THR72      -0.2211
     59  CG2        2.4930   89.0160   12.5180 C.3    72  THR72       0.0376
     60  N          4.8070   85.0250   12.8740 N.am   73  GLN73      -0.1979
     61  CA         5.9720   84.1770   13.0920 C.3    73  GLN73       0.1601
     62  C          5.4720   82.7160   13.1270 C.2    73  GLN73       0.2287
     63  O          4.4570   82.4630   13.7620 O.2    73  GLN73      -0.2864
     64  CB         6.6140   84.4110   14.4660 C.3    73  GLN73       0.0394
     65  CG         7.1140   85.8180   14.8950 C.3    73  GLN73       0.0908
     66  CD         7.5980   85.7640   16.3860 C.2    73  GLN73       0.2608
     67  OE1        7.9850   84.6650   16.9090 O.2    73  GLN73      -0.2717
     68  NE2        7.5690   86.9170   17.0650 N.am   73  GLN73      -0.0878
     69  N          3.3070   80.9850   16.1970 N.3    99  ARG99      -0.1231
     70  CA         3.8420   81.5680   17.4670 C.3    99  ARG99       0.1694
     71  C          3.3390   83.0080   17.8260 C.2    99  ARG99       0.2592
     72  O          3.2910   83.3710   18.9980 O.2    99  ARG99      -0.2718
     73  CB         5.3710   81.6680   17.3490 C.3    99  ARG99       0.0321
     74  CG         5.9130   81.9530   18.7050 C.3    99  ARG99       0.0489
     75  CD         5.4450   80.8890   19.7260 C.3    99  ARG99       0.2205
     76  NE         6.6420   80.1910   20.2480 N.pl3  99  ARG99      -0.0865
     77  CZ         7.2690   79.3970   19.3830 C.cat  99  ARG99       0.5346
     78  NH1        6.8120   79.2240   18.1330 N.pl3  99  ARG99       0.1354
     79  NH2        8.3560   78.7690   19.7990 N.pl3  99  ARG99       0.1354
     80  N          2.9530   83.7880   16.8080 N.am  100  ALA100     -0.1966
     81  CA         2.4410   85.1550   17.0410 C.3   100  ALA100      0.1728
     82  C          1.6200   85.6170   15.8500 C.2   100  ALA100      0.2616
     83  O          1.8620   85.2160   14.6980 O.2   100  ALA100     -0.2715
     84  CB         3.6370   86.1140   17.2630 C.3   100  ALA100      0.0334
     85  N          0.6830   86.5260   16.1310 N.am  101  CYS101     -0.1968
     86  CA        -0.2220   87.0380   15.1250 C.3   101  CYS101      0.1712
     87  C         -0.1600   88.6110   15.0340 C.2   101  CYS101      0.2296
     88  O          0.4630   89.2340   15.8860 O.2   101  CYS101     -0.2864
     89  CB        -1.6730   86.7040   15.5080 C.3   101  CYS101      0.0983
     90  SG        -1.9060   84.8920   15.6310 S.3   101  CYS101     -0.0798
@<TRIPOS>BOND
     1    56    55    2
     2    54    55    1
     3    54    53    1
     4    54    57    1
     5    55    60   am
     6    59    57    1
     7    57    58    1
     8    60    61    1
     9    48    47    2
    10    61    62    1
    11    61    64    1
    12    62    63    2
    13    47    46    1
    14    64    65    1
    15    83    82    2
    16     6     5    1
    17    65    66    1
    18    87    86    1
    19    87    88    2
    20    86    89    1
    21    86    85    1
    22    40    39    2
    23    49    46    1
    24    49    50    1
    25    46    45    1
    26    89    90    1
    27     5     2    1
    28    82    85   am
    29    82    81    1
    30    69    70    1
    31    39    45   am
    32    39    38    1
    33    66    67    2
    34    66    68   am
    35     2     1    1
    36     2     3    1
    37    50    52   am
    38    50    51    2
    39    80    81    1
    40    80    71   am
    41    81    84    1
    42    41    38    1
    43    41    42    1
    44    73    70    1
    45    73    74    1
    46    38    37    1
    47    70    71    1
    48    44    43    1
    49    10     9    2
    50     3     7   am
    51     3     4    2
    52    71    72    2
    53     7     8    1
    54    42    43    1
    55    78    77    1
    56     9     8    1
    57     9    16   am
    58    37    27   am
    59    74    75    1
    60     8    11    1
    61    17    16    1
    62    17    20    1
    63    17    18    1
    64    28    27    2
    65    20    21    1
    66    77    79    1
    67    77    76    2
    68    27    26    1
    69    21    22    1
    70    22    23    1
    71    75    76    1
    72    18    19    2
    73    11    12    1
    74    25    26    1
    75    12    13    1
    76    26    29    1
    77    23    24    1
    78    29    30    1
    79    13    14    1
    80    31    30   ar
    81    31    33   ar
    82    15    14    1
    83    30    32   ar
    84    33    35   ar
    85    32    34   ar
    86    35    34   ar
    87    35    36    1
