@<TRIPOS>MOLECULE
tmp/1ly3A01.pdb
 162 157 0 0 0
SMALL
GASTEIGER

@<TRIPOS>ATOM
      1  N          5.6150    4.0940   17.0170 N.3    10  ILE10      -0.1231
      2  CA         6.1070    3.3390   15.8040 C.3    10  ILE10       0.1692
      3  C          7.5570    3.0570   16.1690 C.2    10  ILE10       0.2592
      4  O          8.3000    3.9050   16.6240 O.2    10  ILE10      -0.2718
      5  CB         5.8430    4.0520   14.4460 C.3    10  ILE10       0.0266
      6  CG1        6.4920    3.2160   13.2970 C.3    10  ILE10       0.0019
      7  CG2        6.3620    5.4990   14.4160 C.3    10  ILE10       0.0020
      8  CD1        5.8480    3.5630   11.8780 C.3    10  ILE10       0.0001
      9  N          7.9040    1.7660   16.0210 N.am   11  VAL11      -0.1966
     10  CA         9.1630    1.1480   16.3090 C.3    11  VAL11       0.1727
     11  C          9.5550   -0.0490   15.4350 C.2    11  VAL11       0.2616
     12  O          8.7130   -0.7930   14.9020 O.2    11  VAL11      -0.2715
     13  CB         9.0730    0.6720   17.7960 C.3    11  VAL11       0.0290
     14  CG1        7.9700   -0.3080   18.0850 C.3    11  VAL11       0.0023
     15  CG2       10.4640    0.3410   18.2520 C.3    11  VAL11       0.0023
     16  N         10.8750   -0.1820   15.3640 N.am   12  ALA12      -0.1977
     17  CA        11.5240   -1.2840   14.6440 C.3    12  ALA12       0.1597
     18  C         12.3770   -1.9260   15.7240 C.2    12  ALA12       0.2287
     19  O         13.1950   -1.2050   16.3130 O.2    12  ALA12      -0.2864
     20  CB        12.3790   -1.0150   13.4280 C.3    12  ALA12       0.0319
     21  N         22.5210    5.0000   17.1490 N.3    24  SER24      -0.1202
     22  CA        22.1170    4.7520   15.7410 C.3    24  SER24       0.2020
     23  C         21.4240    3.4090   15.6500 C.2    24  SER24       0.2618
     24  O         21.2450    2.7120   16.6530 O.2    24  SER24      -0.2717
     25  CB        23.2470    4.9220   14.7230 C.3    24  SER24       0.2103
     26  OG        24.4720    4.9010   15.5010 O.3    24  SER24      -0.2182
     27  N         21.0790    3.0660   14.4130 N.am   25  LEU25      -0.1979
     28  CA        20.4000    1.8300   14.0410 C.3    25  LEU25       0.1596
     29  C         21.4420    0.8500   13.4880 C.2    25  LEU25       0.2287
     30  O         22.1000    1.0010   12.4390 O.2    25  LEU25      -0.2864
     31  CB        19.2310    2.0850   13.1220 C.3    25  LEU25       0.0297
     32  CG        18.0290    2.8700   13.5820 C.3    25  LEU25       0.0022
     33  CD1       17.0950    3.2060   12.4050 C.3    25  LEU25       0.0001
     34  CD2       17.2400    1.9750   14.5540 C.3    25  LEU25       0.0001
     35  N         21.2760   -1.6380   11.8420 N.3    27  TRP27      -0.1241
     36  CA        20.7960   -2.3290   10.6500 C.3    27  TRP27       0.1605
     37  C         20.5260   -1.2650    9.5700 C.2    27  TRP27       0.2264
     38  O         20.2700   -0.0680    9.8610 O.2    27  TRP27      -0.2867
     39  CB        19.6070   -3.2450   11.0110 C.3    27  TRP27       0.0550
     40  CG        18.4620   -2.5280   11.6800 C.ar   27  TRP27       0.0003
     41  CD1       17.6290   -1.6220   11.1330 C.ar   27  TRP27       0.0946
     42  CD2       18.1120   -2.6030   13.0870 C.ar   27  TRP27       0.0152
     43  NE1       16.6850   -1.1950   12.0460 N.ar   27  TRP27      -0.2442
     44  CE2       16.9660   -1.7600   13.2660 C.ar   27  TRP27       0.0810
     45  CE3       18.6140   -3.3200   14.1640 C.ar   27  TRP27       0.0012
     46  CZ2       16.3400   -1.6110   14.4910 C.ar   27  TRP27       0.0191
     47  CZ3       17.9680   -3.1770   15.3820 C.ar   27  TRP27       0.0001
     48  CH2       16.8680   -2.3130   15.5540 C.ar   27  TRP27       0.0015
     49  N         12.4350   -0.5760    5.1310 N.3    32  GLU32      -0.1231
     50  CA        11.9070   -0.4240    6.4970 C.3    32  GLU32       0.1699
     51  C         11.7490    1.1120    6.6800 C.2    32  GLU32       0.2592
     52  O         10.6520    1.5340    7.1160 O.2    32  GLU32      -0.2718
     53  CB        12.6510   -1.0900    7.6270 C.3    32  GLU32       0.0402
     54  CG        11.8030   -1.3900    8.8800 C.3    32  GLU32       0.1161
     55  CD        11.3480   -0.1880    9.6820 C.2    32  GLU32       0.3649
     56  OE1       12.2010    0.7240    9.8100 O.co2  32  GLU32      -0.2457
     57  OE2       10.1700   -0.2810   10.1060 O.co2  32  GLU32      -0.2457
     58  N         12.7170    1.8810    6.2350 N.am   33  ILE33      -0.1980
     59  CA        12.6980    3.3650    6.2360 C.3    33  ILE33       0.1595
     60  C         11.5640    3.9020    5.3530 C.2    33  ILE33       0.2287
     61  O         10.7720    4.8080    5.7470 O.2    33  ILE33      -0.2864
     62  CB        14.1490    3.8630    5.9340 C.3    33  ILE33       0.0276
     63  CG1       15.1150    3.6670    7.1210 C.3    33  ILE33       0.0022
     64  CG2       14.1250    5.2840    5.3220 C.3    33  ILE33       0.0022
     65  CD1       14.7920    4.4660    8.3860 C.3    33  ILE33       0.0001
     66  N          8.7720    2.2570    4.6960 N.3    35  TYR35      -0.1227
     67  CA         7.4610    2.0070    5.3410 C.3    35  TYR35       0.1736
     68  C          7.2760    3.1350    6.4000 C.2    35  TYR35       0.2595
     69  O          6.1640    3.7230    6.4710 O.2    35  TYR35      -0.2718
     70  CB         7.4880    0.6090    5.9500 C.3    35  TYR35       0.0548
     71  CG         6.3890    0.2890    6.9290 C.ar   35  TYR35      -0.0200
     72  CD1        5.1290   -0.0760    6.4390 C.ar   35  TYR35      -0.0009
     73  CD2        6.5570    0.3180    8.2980 C.ar   35  TYR35      -0.0009
     74  CE1        4.0690   -0.3920    7.2910 C.ar   35  TYR35       0.0417
     75  CE2        5.5530   -0.0330    9.1790 C.ar   35  TYR35       0.0417
     76  CZ         4.3100   -0.3530    8.6790 C.ar   35  TYR35       0.1957
     77  OH         3.2820   -0.6350    9.5410 O.3    35  TYR35      -0.2866
     78  N          8.2510    3.3870    7.2280 N.am   36  PHE36      -0.1976
     79  CA         8.1810    4.4690    8.2440 C.3    36  PHE36       0.1639
     80  C          7.6760    5.7730    7.6600 C.2    36  PHE36       0.2290
     81  O          6.6470    6.3750    8.0790 O.2    36  PHE36      -0.2864
     82  CB         9.5500    4.5980    8.8690 C.3    36  PHE36       0.0560
     83  CG         9.7210    5.7570    9.8070 C.ar   36  PHE36      -0.0200
     84  CD1        9.0900    5.6870   11.0600 C.ar   36  PHE36      -0.0042
     85  CD2       10.4640    6.8680    9.4250 C.ar   36  PHE36      -0.0042
     86  CE1        9.2900    6.7450   11.9550 C.ar   36  PHE36      -0.0003
     87  CE2       10.6280    7.9370   10.3250 C.ar   36  PHE36      -0.0003
     88  CZ        10.0510    7.8340   11.6070 C.ar   36  PHE36      -0.0000
     89  N         17.1460   10.8740   19.5890 N.3    61  THR61      -0.1218
     90  CA        16.6830   10.4140   18.2660 C.3    61  THR61       0.1862
     91  C         16.8270   11.5540   17.2770 C.2    61  THR61       0.2287
     92  O         17.1550   11.2470   16.1170 O.2    61  THR61      -0.2866
     93  CB        15.2160    9.8200   18.3050 C.3    61  THR61       0.1770
     94  OG1       15.4520    8.7310   19.2590 O.3    61  THR61      -0.2211
     95  CG2       14.7180    9.3660   16.9690 C.3    61  THR61       0.0375
     96  N         20.0800   11.8450   15.6240 N.3    64  SER64      -0.1202
     97  CA        20.2870   10.6310   14.8830 C.3    64  SER64       0.2020
     98  C         19.8790   10.6110   13.4370 C.2    64  SER64       0.2619
     99  O         20.4010    9.7040   12.7780 O.2    64  SER64      -0.2717
    100  CB        19.4590    9.4490   15.5140 C.3    64  SER64       0.2103
    101  OG        20.1890    9.0040   16.6450 O.3    64  SER64      -0.2182
    102  N         18.9760   11.4460   13.0350 N.am   65  ILE65      -0.1966
    103  CA        18.5050   11.5090   11.6530 C.3    65  ILE65       0.1712
    104  C         19.5840   12.2920   10.8700 C.2    65  ILE65       0.2458
    105  O         20.0440   13.3260   11.3920 O.2    65  ILE65      -0.2730
    106  CB        17.1540   12.2500   11.6750 C.3    65  ILE65       0.0289
    107  CG1       16.1920   11.5290   12.6950 C.3    65  ILE65       0.0022
    108  CG2       16.5490   12.4860   10.2800 C.3    65  ILE65       0.0023
    109  CD1       15.0000   12.5010   12.9330 C.3    65  ILE65       0.0001
    110  N         19.9210   11.7650    9.7130 N.am   66  PRO66      -0.2727
    111  CA        20.9470   12.4250    8.8940 C.3    66  PRO66       0.1402
    112  C         20.4650   13.8520    8.7560 C.2    66  PRO66       0.2269
    113  O         19.2460   14.0000    8.6760 O.2    66  PRO66      -0.2865
    114  CB        20.9730   11.6000    7.6090 C.3    66  PRO66       0.0296
    115  CG        20.6840   10.2050    8.1510 C.3    66  PRO66       0.0237
    116  CD        19.5390   10.4590    9.1620 C.3    66  PRO66       0.0939
    117  N         18.0930   14.4650    6.3950 N.3    69  PHE69      -0.1241
    118  CA        16.6910   13.9970    6.5570 C.3    69  PHE69       0.1605
    119  C         16.0050   14.6280    7.7670 C.2    69  PHE69       0.2264
    120  O         14.8130   14.3650    8.0270 O.2    69  PHE69      -0.2867
    121  CB        16.6710   12.4850    6.7220 C.3    69  PHE69       0.0534
    122  CG        17.4050   11.8110    5.5810 C.ar   69  PHE69      -0.0203
    123  CD1       16.8340   11.8110    4.3090 C.ar   69  PHE69      -0.0042
    124  CD2       18.6470   11.2180    5.8070 C.ar   69  PHE69      -0.0042
    125  CE1       17.5130   11.2180    3.2450 C.ar   69  PHE69      -0.0003
    126  CE2       19.3320   10.6270    4.7410 C.ar   69  PHE69      -0.0003
    127  CZ        18.7650   10.6280    3.4600 C.ar   69  PHE69      -0.0000
    128  N         11.7940   15.8250    9.4170 N.3    72  LEU72      -0.1245
    129  CA        11.0650   14.8780    8.5860 C.3    72  LEU72       0.1561
    130  C         10.0990   15.7380    7.8430 C.2    72  LEU72       0.2260
    131  O          9.3910   16.5240    8.4500 O.2    72  LEU72      -0.2867
    132  CB        10.5300   13.7370    9.4690 C.3    72  LEU72       0.0270
    133  CG        11.5980   13.0190   10.2580 C.3    72  LEU72       0.0019
    134  CD1       10.9170   11.8530   11.0530 C.3    72  LEU72       0.0001
    135  CD2       12.7090   12.4640    9.3930 C.3    72  LEU72       0.0001
    136  N          7.9730    8.4720   17.7280 N.3   123  ILE123     -0.1245
    137  CA         8.9590    7.7400   16.9080 C.3   123  ILE123      0.1561
    138  C         10.2610    7.3970   17.5950 C.2   123  ILE123      0.2260
    139  O         11.1540    6.8680   16.9140 O.2   123  ILE123     -0.2867
    140  CB         9.1470    8.4400   15.5170 C.3   123  ILE123      0.0252
    141  CG1       10.0470    9.6600   15.7570 C.3   123  ILE123      0.0019
    142  CG2        7.7640    8.6920   14.8450 C.3   123  ILE123      0.0019
    143  CD1       10.5310   10.4330   14.4400 C.3   123  ILE123      0.0001
    144  N          9.8110    6.5040   24.5870 N.3   129  TYR129     -0.1241
    145  CA         8.9630    5.3130   24.4940 C.3   129  TYR129      0.1605
    146  C          8.4790    4.9280   25.9080 C.2   129  TYR129      0.2264
    147  O          7.3540    4.4720   25.9680 O.2   129  TYR129     -0.2867
    148  CB         9.6580    4.0880   23.8330 C.3   129  TYR129      0.0534
    149  CG         9.8870    4.1190   22.3460 C.ar  129  TYR129     -0.0201
    150  CD1        8.9120    4.6080   21.4350 C.ar  129  TYR129     -0.0009
    151  CD2       11.0260    3.5270   21.8170 C.ar  129  TYR129     -0.0009
    152  CE1        9.0520    4.5940   20.0440 C.ar  129  TYR129      0.0417
    153  CE2       11.2030    3.4910   20.4260 C.ar  129  TYR129      0.0417
    154  CZ        10.2620    4.0360   19.6070 C.ar  129  TYR129      0.1957
    155  OH        10.5870    3.9620   18.2380 O.3   129  TYR129     -0.2866
    156  N          7.9140   -3.0950   13.8290 N.3   144  THR144     -0.1274
    157  CA         8.5800   -3.8620   12.7500 C.3   144  THR144      0.1548
    158  C          9.4150   -4.8850   13.5170 C.3   144  THR144      0.2036
    159  O         10.3020   -4.4100   14.1930 O.3   144  THR144     -0.2187
    160  CB         9.4890   -3.0030   11.7820 C.3   144  THR144      0.1721
    161  OG1        8.4920   -2.1520   11.1760 O.3   144  THR144     -0.2215
    162  CG2       10.2800   -3.9440   10.8110 C.3   144  THR144      0.0371
@<TRIPOS>BOND
     1   125   127   ar
     2   125   123   ar
     3   127   126   ar
     4   123   122   ar
     5    66    67    1
     6   126   124   ar
     7    49    50    1
     8    64    62    1
     9    67    70    1
    10    67    68    1
    11    60    61    2
    12    60    59    1
    13   122   124   ar
    14   122   121    1
    15    62    59    1
    16    62    63    1
    17    70    71    1
    18    58    59    1
    19    58    51   am
    20   117   118    1
    21    68    69    2
    22    68    78   am
    23    72    71   ar
    24    72    74   ar
    25    50    51    1
    26    50    53    1
    27   118   121    1
    28   118   119    1
    29    51    52    2
    30    71    73   ar
    31    63    65    1
    32    78    79    1
    33    74    76   ar
    34   114   115    1
    35   114   111    1
    36    53    54    1
    37    80    81    2
    38    80    79    1
    39   119   120    2
    40   130   131    2
    41   130   129    1
    42   115   116    1
    43    79    82    1
    44    73    75   ar
    45   129   128    1
    46   129   132    1
    47   113   112    2
    48    76    75   ar
    49    76    77    1
    50   112   111    1
    51    82    83    1
    52    54    55    1
    53   111   110    1
    54   116   110    1
    55   135   133    1
    56    85    83   ar
    57    85    87   ar
    58   132   133    1
    59    37    38    2
    60    37    36    1
    61    55    56   ar
    62    55    57   ar
    63   110   104   am
    64    83    84   ar
    65   133   134    1
    66   108   106    1
    67    87    88   ar
    68    36    39    1
    69    36    35    1
    70   162   160    1
    71   104   105    2
    72   104   103    1
    73    39    40    1
    74    84    86   ar
    75    41    40   ar
    76    41    43   ar
    77   161   160    1
    78    88    86   ar
    79   103   106    1
    80   103   102    1
    81   106   107    1
    82    40    42   ar
    83   160   157    1
    84     8     6    1
    85    43    44   ar
    86    33    32    1
    87    30    29    2
    88   107   109    1
    89   157   158    1
    90   157   156    1
    91    99    98    2
    92   102    98   am
    93    42    44   ar
    94    42    45   ar
    95    31    32    1
    96    31    28    1
    97    44    46   ar
    98     6     5    1
    99    20    17    1
   100    98    97    1
   101    29    28    1
   102   158   159    1
   103    32    34    1
   104    28    27    1
   105    45    47   ar
   106    27    23   am
   107     7     5    1
   108   143   141    1
   109     5     2    1
   110    46    48   ar
   111    17    16    1
   112    17    18    1
   113    25    26    1
   114    25    22    1
   115   142   140    1
   116    97   100    1
   117    97    96    1
   118    12    11    2
   119    16    11   am
   120    47    48   ar
   121    11    10    1
   122   100   101    1
   123   140   141    1
   124   140   137    1
   125    23    22    1
   126    23    24    2
   127    18    19    2
   128    22    21    1
   129     2     3    1
   130     2     1    1
   131     9     3   am
   132     9    10    1
   133    92    91    2
   134     3     4    2
   135    10    13    1
   136   137   138    1
   137   137   136    1
   138   139   138    2
   139    95    93    1
   140    91    90    1
   141    13    14    1
   142    13    15    1
   143   155   154    1
   144    90    93    1
   145    90    89    1
   146    93    94    1
   147   154   152   ar
   148   154   153   ar
   149   152   150   ar
   150   153   151   ar
   151   150   149   ar
   152   151   149   ar
   153   149   148    1
   154   148   145    1
   155   145   144    1
   156   145   146    1
   157   146   147    2
