@<TRIPOS>MOLECULE
tmp/1ly4A01.pdb
 165 160 0 0 0
SMALL
GASTEIGER

@<TRIPOS>ATOM
      1  N          6.0200    4.3280   16.7730 N.3     9  ILE9       -0.1231
      2  CA         6.3890    3.4210   15.6290 C.3     9  ILE9        0.1692
      3  C          7.7950    2.9400   16.0130 C.2     9  ILE9        0.2592
      4  O          8.6640    3.7170   16.4530 O.2     9  ILE9       -0.2718
      5  CB         6.0970    4.0960   14.2300 C.3     9  ILE9        0.0266
      6  CG1        6.4600    3.1990   13.0320 C.3     9  ILE9        0.0019
      7  CG2        6.7430    5.4750   14.1500 C.3     9  ILE9        0.0020
      8  CD1        5.9960    3.5060   11.5830 C.3     9  ILE9        0.0001
      9  N          8.0460    1.6410   15.8190 N.am   10  VAL10      -0.1966
     10  CA         9.3200    1.0480   16.1730 C.3    10  VAL10       0.1727
     11  C          9.7570   -0.1080   15.2930 C.2    10  VAL10       0.2616
     12  O          8.9780   -0.8950   14.7350 O.2    10  VAL10      -0.2715
     13  CB         9.2490    0.7960   17.6830 C.3    10  VAL10       0.0290
     14  CG1        8.1560   -0.1470   18.1500 C.3    10  VAL10       0.0023
     15  CG2       10.5220    0.2060   18.2410 C.3    10  VAL10       0.0023
     16  N         11.0590   -0.3610   15.2490 N.am   11  ALA11      -0.1977
     17  CA        11.7920   -1.3960   14.4970 C.3    11  ALA11       0.1597
     18  C         12.6850   -2.0400   15.5890 C.2    11  ALA11       0.2287
     19  O         13.4870   -1.3550   16.1970 O.2    11  ALA11      -0.2864
     20  CB        12.6670   -0.9670   13.3590 C.3    11  ALA11       0.0319
     21  N         20.4440    3.1410   14.8080 N.3    24  LEU24      -0.1245
     22  CA        19.5700    1.9490   14.6170 C.3    24  LEU24       0.1561
     23  C         20.3110    0.9690   13.7160 C.2    24  LEU24       0.2260
     24  O         20.2020    1.0140   12.4650 O.2    24  LEU24      -0.2867
     25  CB        18.3070    2.5900   13.9930 C.3    24  LEU24       0.0270
     26  CG        18.8630    3.3800   12.7850 C.3    24  LEU24       0.0019
     27  CD1       18.0510    3.0750   11.5420 C.3    24  LEU24       0.0001
     28  CD2       18.9430    4.8510   13.2150 C.3    24  LEU24       0.0001
     29  N         20.8190   -1.3180   11.5850 N.3    26  TRP26      -0.1241
     30  CA        20.6450   -2.1310   10.3490 C.3    26  TRP26       0.1605
     31  C         20.4430   -1.1260    9.2280 C.2    26  TRP26       0.2264
     32  O         20.1340    0.0690    9.4610 O.2    26  TRP26      -0.2867
     33  CB        19.5380   -3.2010   10.6060 C.3    26  TRP26       0.0550
     34  CG        18.4220   -2.5340   11.3350 C.ar   26  TRP26       0.0003
     35  CD1       17.6810   -1.4990   10.8020 C.ar   26  TRP26       0.0946
     36  CD2       18.0370   -2.6650   12.7000 C.ar   26  TRP26       0.0152
     37  NE1       16.7610   -1.0670   11.7300 N.ar   26  TRP26      -0.2442
     38  CE2       16.9330   -1.7680   12.9100 C.ar   26  TRP26       0.0810
     39  CE3       18.4530   -3.5010   13.7490 C.ar   26  TRP26       0.0012
     40  CZ2       16.2950   -1.6430   14.1270 C.ar   26  TRP26       0.0191
     41  CZ3       17.7740   -3.4040   14.9520 C.ar   26  TRP26       0.0001
     42  CH2       16.7180   -2.4970   15.1180 C.ar   26  TRP26       0.0015
     43  N         12.1910   -0.7970    4.7780 N.3    31  GLU31      -0.1231
     44  CA        11.7170   -0.6440    6.1040 C.3    31  GLU31       0.1699
     45  C         11.8660    0.8110    6.4250 C.2    31  GLU31       0.2592
     46  O         11.1480    1.3040    7.2460 O.2    31  GLU31      -0.2718
     47  CB        12.5480   -1.4930    7.0630 C.3    31  GLU31       0.0402
     48  CG        11.9020   -1.7340    8.4320 C.3    31  GLU31       0.1161
     49  CD        11.4990   -0.5000    9.1620 C.2    31  GLU31       0.3649
     50  OE1       12.0980    0.5360    9.4080 O.co2  31  GLU31      -0.2457
     51  OE2       10.3130   -0.5870    9.4480 O.co2  31  GLU31      -0.2457
     52  N         12.7620    1.5440    5.8290 N.am   32  ILE32      -0.1980
     53  CA        12.9030    3.0000    6.1290 C.3    32  ILE32       0.1595
     54  C         11.8600    3.6740    5.2530 C.2    32  ILE32       0.2287
     55  O         11.1450    4.6890    5.4810 O.2    32  ILE32      -0.2864
     56  CB        14.4240    3.4210    6.1150 C.3    32  ILE32       0.0276
     57  CG1       14.9730    3.9020    7.5050 C.3    32  ILE32       0.0022
     58  CG2       14.7800    4.5210    5.0610 C.3    32  ILE32       0.0022
     59  CD1       15.8890    2.8470    8.1650 C.3    32  ILE32       0.0001
     60  N          8.9350    2.3570    4.5410 N.3    34  TYR34      -0.1227
     61  CA         7.6840    2.0960    5.2070 C.3    34  TYR34       0.1736
     62  C          7.4670    3.1350    6.3160 C.2    34  TYR34       0.2595
     63  O          6.3210    3.5370    6.5160 O.2    34  TYR34      -0.2718
     64  CB         7.7100    0.7020    5.8070 C.3    34  TYR34       0.0548
     65  CG         6.5480    0.3210    6.6610 C.ar   34  TYR34      -0.0200
     66  CD1        5.3610   -0.1210    6.0580 C.ar   34  TYR34      -0.0009
     67  CD2        6.6550    0.3840    8.0640 C.ar   34  TYR34      -0.0009
     68  CE1        4.2370   -0.4850    6.8220 C.ar   34  TYR34       0.0417
     69  CE2        5.5430   -0.0060    8.8570 C.ar   34  TYR34       0.0417
     70  CZ         4.4020   -0.4800    8.1990 C.ar   34  TYR34       0.1957
     71  OH         3.3430   -0.7710    8.9920 O.3    34  TYR34      -0.2866
     72  N          8.4920    3.4700    7.0540 N.am   35  PHE35      -0.1962
     73  CA         8.3750    4.4570    8.1460 C.3    35  PHE35       0.1771
     74  C          7.8310    5.7580    7.5230 C.2    35  PHE35       0.2616
     75  O          6.9820    6.4420    8.1250 O.2    35  PHE35      -0.2715
     76  CB         9.6570    4.4160    8.9900 C.3    35  PHE35       0.0574
     77  CG         9.9610    5.6590    9.7450 C.ar   35  PHE35      -0.0200
     78  CD1        9.8450    5.7110   11.1160 C.ar   35  PHE35      -0.0042
     79  CD2       10.1960    6.8620    9.1010 C.ar   35  PHE35      -0.0042
     80  CE1       10.1440    6.8540   11.8360 C.ar   35  PHE35      -0.0003
     81  CE2       10.4070    8.0680    9.7960 C.ar   35  PHE35      -0.0003
     82  CZ        10.3660    8.0470   11.1840 C.ar   35  PHE35      -0.0000
     83  N          8.1400    6.1200    6.2660 N.am   36  LYS36      -0.2030
     84  CA         7.6620    7.2990    5.6060 C.3    36  LYS36       0.1282
     85  C          6.2030    7.2490    5.1510 C.3    36  LYS36       0.2036
     86  O          5.5940    8.3340    5.3690 O.3    36  LYS36      -0.2185
     87  CB         8.3690    7.7170    4.3460 C.3    36  LYS36       0.0244
     88  CG         9.0940    9.0350    4.4730 C.3    36  LYS36       0.0034
     89  CD         9.4980    9.5230    3.0850 C.3    36  LYS36       0.0206
     90  CE         9.2220   11.0030    2.9580 C.3    36  LYS36       0.1093
     91  NZ         7.8460   11.4290    2.5870 N.3    36  LYS36      -0.1314
     92  N         17.6660   10.6280   19.2900 N.3    60  THR60      -0.1218
     93  CA        17.1390   10.2770   17.9840 C.3    60  THR60       0.1862
     94  C         17.2110   11.5300   17.1290 C.2    60  THR60       0.2287
     95  O         17.3780   11.5370   15.9040 O.2    60  THR60      -0.2866
     96  CB        15.6150    9.8250   18.1110 C.3    60  THR60       0.1770
     97  OG1       15.6220    8.7750   19.1080 O.3    60  THR60      -0.2211
     98  CG2       14.9060    9.4360   16.8370 C.3    60  THR60       0.0375
     99  N         20.6630   11.3750   16.0620 N.3    63  SER63      -0.1202
    100  CA        20.7990   10.1080   15.3810 C.3    63  SER63       0.2020
    101  C         20.1220   10.2320   14.0350 C.2    63  SER63       0.2619
    102  O         20.2710    9.2240   13.2990 O.2    63  SER63      -0.2717
    103  CB        20.2620    8.9840   16.2100 C.3    63  SER63       0.2103
    104  OG        19.8170    7.8230   15.5600 O.3    63  SER63      -0.2182
    105  N         19.4360   11.3570   13.7590 N.am   64  ILE64      -0.1966
    106  CA        18.8280   11.3940   12.3950 C.3    64  ILE64       0.1712
    107  C         19.7460   12.2080   11.4560 C.2    64  ILE64       0.2458
    108  O         19.9270   13.4230   11.7500 O.2    64  ILE64      -0.2730
    109  CB        17.4080   12.0370   12.2330 C.3    64  ILE64       0.0289
    110  CG1       16.2610   11.2450   12.8790 C.3    64  ILE64       0.0022
    111  CG2       17.1150   12.3070   10.7130 C.3    64  ILE64       0.0023
    112  CD1       15.1140   12.0480   13.5380 C.3    64  ILE64       0.0001
    113  N         20.1790   11.5800   10.3780 N.am   65  PRO65      -0.2727
    114  CA        20.9800   12.2450    9.3510 C.3    65  PRO65       0.1402
    115  C         20.5730   13.7010    9.1290 C.2    65  PRO65       0.2269
    116  O         19.4060   14.1060    9.0230 O.2    65  PRO65      -0.2865
    117  CB        20.7400   11.4270    8.0760 C.3    65  PRO65       0.0296
    118  CG        19.6920   10.4060    8.4630 C.3    65  PRO65       0.0237
    119  CD        19.8730   10.2050    9.9720 C.3    65  PRO65       0.0939
    120  N         18.5330   14.2370    6.5110 N.3    68  PHE68      -0.1241
    121  CA        17.1380   13.7790    6.6270 C.3    68  PHE68       0.1605
    122  C         16.1230   14.6380    7.3240 C.2    68  PHE68       0.2264
    123  O         14.9410   14.6650    6.8740 O.2    68  PHE68      -0.2867
    124  CB        17.1390   12.2760    7.0270 C.3    68  PHE68       0.0534
    125  CG        17.6290   11.5760    5.7780 C.ar   68  PHE68      -0.0203
    126  CD1       18.8520   10.9670    5.7360 C.ar   68  PHE68      -0.0042
    127  CD2       16.8670   11.7080    4.6050 C.ar   68  PHE68      -0.0042
    128  CE1       19.3250   10.3950    4.5720 C.ar   68  PHE68      -0.0003
    129  CE2       17.3350   11.1700    3.3660 C.ar   68  PHE68      -0.0003
    130  CZ        18.5530   10.4800    3.4160 C.ar   68  PHE68      -0.0000
    131  N         12.0960   16.0590    9.5230 N.3    71  LEU71      -0.1245
    132  CA        11.3590   15.0970    8.6750 C.3    71  LEU71       0.1561
    133  C         10.2380   15.8570    7.9970 C.2    71  LEU71       0.2260
    134  O          9.3350   16.4090    8.6050 O.2    71  LEU71      -0.2867
    135  CB        10.9080   13.8380    9.3840 C.3    71  LEU71       0.0270
    136  CG        11.8860   12.8260    9.9060 C.3    71  LEU71       0.0019
    137  CD1       11.5590   12.2140   11.2790 C.3    71  LEU71       0.0001
    138  CD2       11.8090   11.6000    9.0000 C.3    71  LEU71       0.0001
    139  N          8.2150    8.3030   17.5000 N.3   122  ILE122     -0.1245
    140  CA         9.3180    7.6570   16.7590 C.3   122  ILE122      0.1561
    141  C         10.4820    7.3350   17.6670 C.2   122  ILE122      0.2260
    142  O         11.3060    6.5620   17.2360 O.2   122  ILE122     -0.2867
    143  CB         9.6890    8.4190   15.4910 C.3   122  ILE122      0.0252
    144  CG1       10.5120    9.7060   15.7900 C.3   122  ILE122      0.0019
    145  CG2        8.3970    8.7800   14.6800 C.3   122  ILE122      0.0019
    146  CD1       10.7920   10.3660   14.4080 C.3   122  ILE122      0.0001
    147  N          9.8470    6.4120   24.3660 N.3   128  TYR128     -0.1241
    148  CA         9.0620    5.2070   24.1590 C.3   128  TYR128      0.1605
    149  C          8.4520    4.7660   25.4890 C.2   128  TYR128      0.2264
    150  O          7.3270    4.2230   25.5890 O.2   128  TYR128     -0.2867
    151  CB         9.9420    4.0260   23.6200 C.3   128  TYR128      0.0534
    152  CG        10.1750    3.9640   22.1300 C.ar  128  TYR128     -0.0201
    153  CD1        9.1790    4.5060   21.2640 C.ar  128  TYR128     -0.0009
    154  CD2       11.2470    3.2790   21.5240 C.ar  128  TYR128     -0.0009
    155  CE1        9.3020    4.5560   19.8590 C.ar  128  TYR128      0.0417
    156  CE2       11.3850    3.3660   20.1410 C.ar  128  TYR128      0.0417
    157  CZ        10.4930    3.9820   19.3260 C.ar  128  TYR128      0.1957
    158  OH        10.6510    4.0100   17.9460 O.3   128  TYR128     -0.2866
    159  N          7.9800   -3.0690   13.3880 N.3   143  THR143     -0.1218
    160  CA         8.6700   -3.9160   12.3820 C.3   143  THR143      0.1862
    161  C          9.5270   -4.9360   13.1770 C.2   143  THR143      0.2287
    162  O         10.2740   -4.5010   14.0890 O.2   143  THR143     -0.2866
    163  CB         9.5900   -3.0660   11.4450 C.3   143  THR143      0.1770
    164  OG1        8.7540   -1.9930   11.0180 O.3   143  THR143     -0.2211
    165  CG2       10.2480   -4.0190   10.3990 C.3   143  THR143      0.0375
@<TRIPOS>BOND
     1    91    90    1
     2    90    89    1
     3    89    88    1
     4   129   130   ar
     5   129   127   ar
     6   130   128   ar
     7    87    88    1
     8    87    84    1
     9    60    61    1
    10   128   126   ar
    11   127   125   ar
    12    43    44    1
    13    58    56    1
    14    85    86    1
    15    85    84    1
    16    61    64    1
    17    61    62    1
    18    54    55    2
    19    54    53    1
    20    84    83    1
    21   126   125   ar
    22   125   124    1
    23    64    65    1
    24    52    53    1
    25    52    45   am
    26    66    65   ar
    27    66    68   ar
    28    44    45    1
    29    44    47    1
    30    56    53    1
    31    56    57    1
    32    83    74   am
    33    62    63    2
    34    62    72   am
    35    45    46    2
    36   120   121    1
    37   121   124    1
    38   121   122    1
    39    65    67   ar
    40    68    70   ar
    41   123   122    2
    42    72    73    1
    43    47    48    1
    44    57    59    1
    45    74    75    2
    46    74    73    1
    47   133   134    2
    48   133   132    1
    49    67    69   ar
    50   117   118    1
    51   117   114    1
    52    73    76    1
    53    70    69   ar
    54    70    71    1
    55    48    49    1
    56   118   119    1
    57   132   135    1
    58   132   131    1
    59    76    77    1
    60   138   136    1
    61   116   115    2
    62    79    77   ar
    63    79    81   ar
    64   115   114    1
    65    49    50   ar
    66    49    51   ar
    67    31    32    2
    68    31    30    1
    69   114   113    1
    70   135   136    1
    71    77    78   ar
    72    81    82   ar
    73   136   137    1
    74   119   113    1
    75    30    33    1
    76    30    29    1
    77   113   107   am
    78   165   163    1
    79    33    34    1
    80   111   109    1
    81    35    34   ar
    82    35    37   ar
    83   164   163    1
    84    78    80   ar
    85    82    80   ar
    86    34    36   ar
    87   163   160    1
    88   107   108    2
    89   107   106    1
    90    27    26    1
    91     8     6    1
    92    37    38   ar
    93   109   106    1
    94   109   110    1
    95   160   161    1
    96   160   159    1
    97   106   105    1
    98    24    23    2
    99    36    38   ar
   100    36    39   ar
   101    26    28    1
   102    26    25    1
   103   110   112    1
   104    38    40   ar
   105     6     5    1
   106   161   162    2
   107   102   101    2
   108    20    17    1
   109    23    22    1
   110    39    41   ar
   111   105   101   am
   112    25    22    1
   113   101   100    1
   114    40    42   ar
   115     7     5    1
   116     5     2    1
   117   146   144    1
   118    17    16    1
   119    17    18    1
   120    22    21    1
   121   145   143    1
   122    12    11    2
   123    41    42   ar
   124    16    11   am
   125    11    10    1
   126   100    99    1
   127   100   103    1
   128   143   144    1
   129   143   140    1
   130   104   103    1
   131    18    19    2
   132     2     3    1
   133     2     1    1
   134     9     3   am
   135     9    10    1
   136    95    94    2
   137     3     4    2
   138    10    13    1
   139   140   139    1
   140   140   141    1
   141    98    96    1
   142    94    93    1
   143   142   141    2
   144    13    14    1
   145    13    15    1
   146   158   157    1
   147    93    96    1
   148    93    92    1
   149    96    97    1
   150   157   155   ar
   151   157   156   ar
   152   155   153   ar
   153   156   154   ar
   154   153   152   ar
   155   154   152   ar
   156   152   151    1
   157   151   148    1
   158   148   147    1
   159   148   149    1
   160   149   150    2
