@<TRIPOS>MOLECULE
tmp/1lybE00.pdb
 196 180 0 0 0
SMALL
GASTEIGER

@<TRIPOS>ATOM
      1  N         -1.8710   41.4310   23.4420 N.3    20  THR20      -0.1203
      2  CA        -2.2710   42.1630   22.2500 C.3    20  THR20       0.1994
      3  C         -3.7350   42.0560   21.9080 C.2    20  THR20       0.2617
      4  O         -4.4330   43.0690   22.0390 O.2    20  THR20      -0.2717
      5  CB        -1.3520   41.7240   21.0380 C.3    20  THR20       0.1784
      6  OG1       -1.8730   42.3570   19.8430 O.3    20  THR20      -0.2211
      7  CG2       -1.1790   40.1890   21.0010 C.3    20  THR20       0.0376
      8  N         -4.2770   40.8940   21.5600 N.am   21  PHE21      -0.1975
      9  CA        -5.6790   40.8940   21.2290 C.3    21  PHE21       0.1639
     10  C         -6.5340   41.0940   22.4570 C.2    21  PHE21       0.2290
     11  O         -7.7000   41.3630   22.2400 O.2    21  PHE21      -0.2864
     12  CB        -6.0420   39.6020   20.5040 C.3    21  PHE21       0.0560
     13  CG        -5.3670   39.6300   19.1420 C.ar   21  PHE21      -0.0200
     14  CD1       -5.6390   40.6260   18.2300 C.ar   21  PHE21      -0.0042
     15  CD2       -4.4230   38.6820   18.8420 C.ar   21  PHE21      -0.0042
     16  CE1       -4.9510   40.6730   17.0280 C.ar   21  PHE21      -0.0003
     17  CE2       -3.7430   38.7310   17.6490 C.ar   21  PHE21      -0.0003
     18  CZ        -4.0020   39.7260   16.7370 C.ar   21  PHE21      -0.0000
     19  N         -6.4990   45.1580   22.4580 N.3    24  ALA24      -0.1245
     20  CA        -7.0000   45.6620   21.2100 C.3    24  ALA24       0.1562
     21  C         -8.4900   45.9470   21.2390 C.2    24  ALA24       0.2260
     22  O         -9.3190   45.1290   21.6290 O.2    24  ALA24      -0.2867
     23  CB        -6.6850   44.6470   20.1380 C.3    24  ALA24       0.0290
     24  N        -10.5670   46.2550   18.9010 N.3    26  PHE26      -0.1241
     25  CA       -11.2640   45.6280   17.8000 C.3    26  PHE26       0.1605
     26  C        -11.4610   44.1170   17.9670 C.2    26  PHE26       0.2264
     27  O        -10.5920   43.4360   18.5350 O.2    26  PHE26      -0.2867
     28  CB       -10.4610   45.9630   16.5160 C.3    26  PHE26       0.0534
     29  CG        -9.0140   45.4550   16.4940 C.ar   26  PHE26      -0.0203
     30  CD1       -8.7150   44.1510   16.1440 C.ar   26  PHE26      -0.0042
     31  CD2       -7.9850   46.3210   16.7970 C.ar   26  PHE26      -0.0042
     32  CE1       -7.4140   43.7030   16.1010 C.ar   26  PHE26      -0.0003
     33  CE2       -6.6810   45.8730   16.7530 C.ar   26  PHE26      -0.0003
     34  CZ        -6.3910   44.5700   16.4020 C.ar   26  PHE26      -0.0000
     35  N         -9.7540   41.1310   12.2570 N.3    29  ILE29      -0.1245
     36  CA        -9.0010   41.8020   11.2160 C.3    29  ILE29       0.1561
     37  C         -9.5890   41.4230    9.8580 C.2    29  ILE29       0.2260
     38  O         -9.9180   40.2480    9.6340 O.2    29  ILE29      -0.2867
     39  CB        -7.5560   41.3430   11.3650 C.3    29  ILE29       0.0252
     40  CG1       -6.9890   41.9640   12.6210 C.3    29  ILE29       0.0019
     41  CG2       -6.7620   41.6910   10.1420 C.3    29  ILE29       0.0019
     42  CD1       -5.5910   41.5080   12.9850 C.3    29  ILE29       0.0001
     43  N         -0.4860   36.3990   -0.1050 N.3    37  ILE37      -0.1245
     44  CA        -0.1160   36.1180    1.2750 C.3    37  ILE37       0.1561
     45  C         -1.2810   35.6630    2.1470 C.2    37  ILE37       0.2260
     46  O         -1.2290   35.7410    3.3830 O.2    37  ILE37      -0.2867
     47  CB         0.5410   37.3580    1.8810 C.3    37  ILE37       0.0252
     48  CG1       -0.3110   38.6050    1.7100 C.3    37  ILE37       0.0019
     49  CG2        1.9200   37.4650    1.2400 C.3    37  ILE37       0.0019
     50  CD1        0.1180   39.7740    2.6050 C.3    37  ILE37       0.0001
     51  N          2.1420   42.2820   -0.0890 N.3   100  TYR100     -0.1241
     52  CA         1.6440   43.4040    0.6600 C.3   100  TYR100      0.1605
     53  C          1.4450   44.4550   -0.4360 C.2   100  TYR100      0.2264
     54  O          1.5610   44.1820   -1.6410 O.2   100  TYR100     -0.2867
     55  CB         2.6690   43.9290    1.6710 C.3   100  TYR100      0.0534
     56  CG         3.1920   42.8460    2.5880 C.ar  100  TYR100     -0.0201
     57  CD1        4.2400   42.0480    2.1780 C.ar  100  TYR100     -0.0009
     58  CD2        2.5900   42.6310    3.8100 C.ar  100  TYR100     -0.0009
     59  CE1        4.6810   41.0300    2.9950 C.ar  100  TYR100      0.0417
     60  CE2        3.0250   41.6120    4.6330 C.ar  100  TYR100      0.0417
     61  CZ         4.0620   40.8180    4.2080 C.ar  100  TYR100      0.1957
     62  OH         4.4820   39.7730    4.9900 O.3   100  TYR100     -0.2866
     63  N          6.0120   48.9300    2.5860 N.3   124  ILE124     -0.1245
     64  CA         4.6600   48.4550    2.3320 C.3   124  ILE124      0.1561
     65  C          3.7810   49.5420    2.9140 C.2   124  ILE124      0.2260
     66  O          4.1870   50.1820    3.8950 O.2   124  ILE124     -0.2867
     67  CB         4.4100   47.0730    3.0050 C.3   124  ILE124      0.0252
     68  CG1        4.7040   47.0150    4.5010 C.3   124  ILE124      0.0019
     69  CG2        5.2810   46.1140    2.2300 C.3   124  ILE124      0.0019
     70  CD1        4.2800   45.7390    5.2500 C.3   124  ILE124      0.0001
     71  N          0.6640   50.3190    5.0590 N.3   126  ASP126     -0.1239
     72  CA        -0.1580   49.4130    5.8550 C.3   126  ASP126      0.1674
     73  C         -1.0250   50.0980    6.8890 C.2   126  ASP126      0.2266
     74  O         -0.5690   50.5790    7.9190 O.2   126  ASP126     -0.2867
     75  CB         0.8130   48.4030    6.4950 C.3   126  ASP126      0.1410
     76  CG         0.2680   47.3170    7.4130 C.2   126  ASP126      0.3668
     77  OD1       -0.9440   47.1560    7.5420 O.co2 126  ASP126     -0.2456
     78  OD2        1.0910   46.6040    7.9920 O.co2 126  ASP126     -0.2456
     79  N         -2.8700   48.7380    8.9820 N.3   128  GLY128     -0.1210
     80  CA        -2.8780   48.0040   10.2190 C.3   128  GLY128      0.1956
     81  C         -1.6600   48.2820   11.0760 C.2   128  GLY128      0.2613
     82  O         -1.4830   47.5660   12.0530 O.2   128  GLY128     -0.2717
     83  N         -0.7550   49.2180   10.7870 N.am  129  THR129     -0.1938
     84  CA         0.3800   49.4170   11.6650 C.3   129  THR129      0.2028
     85  C          0.3680   50.8580   12.1110 C.2   129  THR129      0.2643
     86  O          0.3760   51.7520   11.2540 O.2   129  THR129     -0.2714
     87  CB         1.6080   49.0630   10.8960 C.3   129  THR129      0.1808
     88  OG1        1.4580   47.6910   10.5260 O.3   129  THR129     -0.2208
     89  CG2        2.8610   49.3550   11.6790 C.3   129  THR129      0.0379
     90  N          0.3080   51.0840   13.4200 N.am  130  SER130     -0.1935
     91  CA         0.1260   52.4240   13.9360 C.3   130  SER130      0.2055
     92  C          1.2050   53.4270   13.6170 C.2   130  SER130      0.2642
     93  O          0.9330   54.5650   13.2410 O.2   130  SER130     -0.2714
     94  CB        -0.0200   52.4100   15.4280 C.3   130  SER130      0.2130
     95  OG        -0.6930   51.2300   15.8170 O.3   130  SER130     -0.2179
     96  N          2.4480   53.0020   13.6820 N.am  131  LEU131     -0.1977
     97  CA         3.5350   53.9320   13.5570 C.3   131  LEU131      0.1596
     98  C          4.2050   53.7440   12.2200 C.2   131  LEU131      0.2287
     99  O          3.6860   52.9870   11.3990 O.2   131  LEU131     -0.2864
    100  CB         4.5240   53.6610   14.6470 C.3   131  LEU131      0.0297
    101  CG         4.0450   53.5690   16.0690 C.3   131  LEU131      0.0022
    102  CD1        5.0050   52.6890   16.8610 C.3   131  LEU131      0.0001
    103  CD2        3.9010   54.9510   16.6300 C.3   131  LEU131      0.0001
    104  N          7.5250   52.0350   10.5890 N.3   133  VAL133     -0.1245
    105  CA         8.6220   51.2510   11.1390 C.3   133  VAL133      0.1561
    106  C          9.6400   51.2110   10.0250 C.2   133  VAL133      0.2260
    107  O          9.3430   51.4350    8.8390 O.2   133  VAL133     -0.2867
    108  CB         8.3020   49.7370   11.5910 C.3   133  VAL133      0.0252
    109  CG1        6.8410   49.6450   11.9640 C.3   133  VAL133      0.0019
    110  CG2        8.6310   48.6930   10.5560 C.3   133  VAL133      0.0019
    111  N         10.7290   51.2780   20.5440 N.3   155  GLU155     -0.1245
    112  CA         9.7620   52.3630   20.7120 C.3   155  GLU155      0.1567
    113  C         10.5700   53.4930   21.3580 C.2   155  GLU155      0.2260
    114  O         11.4180   53.2060   22.2160 O.2   155  GLU155     -0.2867
    115  CB         8.5890   51.9640   21.6340 C.3   155  GLU155      0.0388
    116  CG         7.4830   51.1220   20.9460 C.3   155  GLU155      0.1160
    117  CD         6.1360   50.9490   21.6940 C.2   155  GLU155      0.3649
    118  OE1        5.8110   51.7140   22.6080 O.co2 155  GLU155     -0.2457
    119  OE2        5.3790   50.0360   21.3600 O.co2 155  GLU155     -0.2457
    120  N          2.9470   60.9340   18.8790 N.3   187  LEU187     -0.1245
    121  CA         1.5880   60.6680   19.3640 C.3   187  LEU187      0.1561
    122  C          1.5540   60.9280   20.8490 C.2   187  LEU187      0.2260
    123  O          2.3610   60.3750   21.6110 O.2   187  LEU187     -0.2867
    124  CB         1.1250   59.2200   19.2200 C.3   187  LEU187      0.0270
    125  CG         1.1350   58.4340   17.9410 C.3   187  LEU187      0.0019
    126  CD1        2.5540   58.1950   17.4260 C.3   187  LEU187      0.0001
    127  CD2        0.4640   57.1110   18.2470 C.3   187  LEU187      0.0001
    128  N          5.0910   59.8340   22.1900 N.3   198  LEU198     -0.1245
    129  CA         5.7600   58.7180   21.5170 C.3   198  LEU198      0.1561
    130  C          6.3990   59.2470   20.2570 C.2   198  LEU198      0.2260
    131  O          5.7910   60.0650   19.5610 O.2   198  LEU198     -0.2867
    132  CB         4.7850   57.6520   21.0720 C.3   198  LEU198      0.0270
    133  CG         4.9690   56.1920   21.3910 C.3   198  LEU198      0.0019
    134  CD1        3.7970   55.4610   20.8100 C.3   198  LEU198      0.0001
    135  CD2        6.2290   55.6320   20.7920 C.3   198  LEU198      0.0001
    136  N          9.2890   53.4630   14.9290 N.3   202  MET202     -0.1196
    137  CA         9.7890   52.4370   15.8120 C.3   202  MET202      0.1786
    138  C         10.6960   51.6020   14.9200 C.2   202  MET202      0.2306
    139  O         10.4430   51.5110   13.7090 O.2   202  MET202     -0.2863
    140  CB         8.6310   51.5800   16.3910 C.2   202  MET202      0.0070
    141  CG         8.0250   50.4670   15.5310 C.2   202  MET202      0.0282
    142  SD         6.6230   49.5940   16.2790 S.3   202  MET202     -0.1125
    143  CE         7.3570   48.0230   16.6330 C.3   202  MET202      0.0742
    144  N         12.1860   47.9280   13.6680 N.3   204  MET204     -0.1245
    145  CA        11.9390   46.4910   13.7630 C.3   204  MET204      0.1570
    146  C         12.3570   45.9390   12.4200 C.2   204  MET204      0.2261
    147  O         11.9510   46.4630   11.3730 O.2   204  MET204     -0.2867
    148  CB        10.4660   46.1910   13.9840 C.3   204  MET204      0.0387
    149  CG        10.1490   44.7670   14.3420 C.3   204  MET204      0.0595
    150  SD         8.3890   44.6600   14.7080 S.3   204  MET204     -0.1393
    151  CE         7.9120   43.9900   13.1460 C.3   204  MET204      0.0692
    152  N         12.3890   43.2960    9.4260 N.3   206  ILE206     -0.1231
    153  CA        11.5520   42.2030    8.9600 C.3   206  ILE206      0.1678
    154  C         12.5720   41.2940    8.3090 C.2   206  ILE206      0.2434
    155  O         13.3450   41.7990    7.4820 O.2   206  ILE206     -0.2733
    156  CB        10.5120   42.7160    7.9530 C.3   206  ILE206      0.0265
    157  CG1        9.6110   43.6790    8.7020 C.3   206  ILE206      0.0019
    158  CG2        9.7000   41.5790    7.3430 C.3   206  ILE206      0.0020
    159  CD1        8.6230   44.4640    7.8290 C.3   206  ILE206      0.0001
    160  N         12.6890   40.0030    8.6310 N.am  207  PRO207     -0.2729
    161  CA        13.6070   39.1010    7.9410 C.3   207  PRO207      0.1401
    162  C         13.3100   39.0560    6.4350 C.2   207  PRO207      0.2269
    163  O         12.1200   39.1070    6.0610 O.2   207  PRO207     -0.2865
    164  CB        13.3890   37.7860    8.6650 C.3   207  PRO207      0.0296
    165  CG        11.9540   37.8530    9.1210 C.3   207  PRO207      0.0237
    166  CD        11.8850   39.2870    9.6160 C.3   207  PRO207      0.0939
    167  N         10.5180   38.4940    2.7980 N.3   210  SER210     -0.1217
    168  CA         9.7950   39.7190    2.5800 C.3   210  SER210      0.1889
    169  C         10.5740   40.9350    3.0300 C.2   210  SER210      0.2288
    170  O         10.4880   41.9780    2.3860 O.2   210  SER210     -0.2866
    171  CB         8.4940   39.5090    3.3080 C.3   210  SER210      0.2089
    172  OG         7.9520   38.2660    2.8540 O.3   210  SER210     -0.2183
    173  N         12.1340   45.7890    5.2490 N.3   213  LEU213     -0.1245
    174  CA        11.1320   46.6750    4.6880 C.3   213  LEU213      0.1561
    175  C         10.7810   47.8340    5.5940 C.2   213  LEU213      0.2260
    176  O         10.6160   47.6280    6.7950 O.2   213  LEU213     -0.2867
    177  CB         9.8060   45.9730    4.4510 C.3   213  LEU213      0.0270
    178  CG         9.6320   44.8860    3.4430 C.3   213  LEU213      0.0019
    179  CD1        8.2980   44.2400    3.6860 C.3   213  LEU213      0.0001
    180  CD2        9.7340   45.4420    2.0420 C.3   213  LEU213      0.0001
    181  N          7.7900   50.2950    6.7010 N.3   215  ILE215     -0.1245
    182  CA         6.3570   50.0910    6.7590 C.3   215  ILE215      0.1561
    183  C          5.8090   51.4920    6.9380 C.2   215  ILE215      0.2260
    184  O          6.1150   52.1250    7.9580 O.2   215  ILE215     -0.2867
    185  CB         6.0130   49.1990    7.9650 C.3   215  ILE215      0.0252
    186  CG1        6.5100   47.7900    7.7460 C.3   215  ILE215      0.0019
    187  CG2        4.5070   49.2150    8.1800 C.3   215  ILE215      0.0019
    188  CD1        6.0150   46.8290    8.8370 C.3   215  ILE215      0.0001
    189  N         -0.1800   54.0030    9.6400 N.3   218  ASP218     -0.1239
    190  CA        -1.1260   55.0890    9.8380 C.3   218  ASP218      0.1674
    191  C         -0.5410   56.4630   10.0150 C.2   218  ASP218      0.2266
    192  O         -1.1900   57.3840    9.5450 O.2   218  ASP218     -0.2867
    193  CB        -2.0130   54.8690   11.0460 C.3   218  ASP218      0.1410
    194  CG        -2.7540   53.5480   11.0080 C.2   218  ASP218      0.3668
    195  OD1       -3.2850   53.1910    9.9590 O.co2 218  ASP218     -0.2456
    196  OD2       -2.7780   52.8880   12.0470 O.co2 218  ASP218     -0.2456
@<TRIPOS>BOND
     1    54    53    2
     2    53    52    1
     3    43    44    1
     4    51    52    1
     5    52    55    1
     6    49    47    1
     7    44    47    1
     8    44    45    1
     9    55    56    1
    10    48    47    1
    11    48    50    1
    12   180   178    1
    13    45    46    2
    14    57    56   ar
    15    57    59   ar
    16    69    67    1
    17    64    63    1
    18    64    65    1
    19    64    67    1
    20   170   169    2
    21   168   167    1
    22   168   169    1
    23   168   171    1
    24    56    58   ar
    25   172   171    1
    26    65    66    2
    27    59    61   ar
    28    67    68    1
    29   178   179    1
    30   178   177    1
    31    58    60   ar
    32    61    60   ar
    33    61    62    1
    34   177   174    1
    35    68    70    1
    36   174   173    1
    37   174   175    1
    38    71    72    1
    39   175   176    2
    40    72    75    1
    41    72    73    1
    42   163   162    2
    43   162   161    1
    44    75    76    1
    45   181   182    1
    46   182   183    1
    47   182   185    1
    48    73    74    2
    49   183   184    2
    50   158   156    1
    51    76    77   ar
    52    76    78   ar
    53   155   154    2
    54   186   185    1
    55   186   188    1
    56   159   157    1
    57   161   160    1
    58   161   164    1
    59   156   157    1
    60   156   153    1
    61   185   187    1
    62   154   160   am
    63   154   153    1
    64   160   166    1
    65   164   165    1
    66   107   106    2
    67   153   152    1
    68    79    80    1
    69   165   166    1
    70   192   191    2
    71    38    37    2
    72   189   190    1
    73   190   191    1
    74   190   193    1
    75    37    36    1
    76   195   194   ar
    77   106   105    1
    78    41    39    1
    79    80    81    1
    80    88    87    1
    81   110   108    1
    82   104   105    1
    83    83    81   am
    84    83    84    1
    85    87    84    1
    86    87    89    1
    87   194   193    1
    88   194   196   ar
    89    81    82    2
    90   105   108    1
    91    36    39    1
    92    36    35    1
    93    86    85    2
    94    39    40    1
    95   147   146    2
    96    99    98    2
    97   108   109    1
    98    84    85    1
    99    85    90   am
   100    98    97    1
   101   146   145    1
   102    40    42    1
   103   151   150    1
   104    93    92    2
   105    90    91    1
   106    97    96    1
   107    97   100    1
   108    92    96   am
   109    92    91    1
   110   144   145    1
   111   139   138    2
   112   145   148    1
   113    91    94    1
   114   148   149    1
   115   149   150    1
   116   100   101    1
   117   138   137    1
   118   136   137    1
   119    94    95    1
   120   141   142    1
   121   141   140    2
   122   137   140    1
   123   101   103    1
   124   101   102    1
   125    32    30   ar
   126    32    34   ar
   127    30    29   ar
   128   142   143    1
   129    34    33   ar
   130    29    28    1
   131    29    31   ar
   132    28    25    1
   133    18    16   ar
   134    18    17   ar
   135    33    31   ar
   136    16    14   ar
   137   126   125    1
   138    17    15   ar
   139    25    26    1
   140    25    24    1
   141   125   127    1
   142   125   124    1
   143    26    27    2
   144    14    13   ar
   145    15    13   ar
   146   120   121    1
   147    13    12    1
   148   124   121    1
   149   121   122    1
   150   131   130    2
   151     6     5    1
   152    23    20    1
   153   130   129    1
   154    12     9    1
   155   111   112    1
   156   112   113    1
   157   112   115    1
   158   135   133    1
   159   134   133    1
   160   122   123    2
   161   116   115    1
   162   116   117    1
   163     7     5    1
   164     5     2    1
   165   132   133    1
   166   132   129    1
   167    20    21    1
   168    20    19    1
   169     9     8    1
   170     9    10    1
   171    21    22    2
   172   113   114    2
   173   119   117   ar
   174   129   128    1
   175     8     3   am
   176   117   118   ar
   177     3     4    2
   178     3     2    1
   179    11    10    2
   180     2     1    1
