@<TRIPOS>MOLECULE
tmp/1lybA00.pdb
 83 80 0 0 0
SMALL
GASTEIGER

@<TRIPOS>ATOM
      1  N         23.7840   82.6650    8.8660 N.3    13  ALA13      -0.1231
      2  CA        23.4080   84.0090    8.4830 C.3    13  ALA13       0.1694
      3  C         22.0250   84.3490    9.0310 C.2    13  ALA13       0.2591
      4  O         21.6980   85.5270    9.1670 O.2    13  ALA13      -0.2718
      5  CB        23.3370   84.1530    6.9700 C.3    13  ALA13       0.0304
      6  N         21.1160   83.4220    9.3540 N.am   14  GLN14      -0.1979
      7  CA        19.7740   83.8120    9.7900 C.3    14  GLN14       0.1601
      8  C         19.3220   83.0710   11.0090 C.2    14  GLN14       0.2287
      9  O         19.1960   81.8620   10.9180 O.2    14  GLN14      -0.2864
     10  CB        18.7930   83.5540    8.7000 C.3    14  GLN14       0.0394
     11  CG        18.7510   84.6930    7.7610 C.3    14  GLN14       0.0908
     12  CD        17.8370   84.3510    6.6180 C.2    14  GLN14       0.2608
     13  OE1       16.6640   83.9950    6.7700 O.2    14  GLN14      -0.2717
     14  NE2       18.3670   84.4760    5.4150 N.am   14  GLN14      -0.0878
     15  N         13.0810   87.2880   13.4830 N.3    31  VAL31      -0.1245
     16  CA        14.3700   87.2760   14.1440 C.3    31  VAL31       0.1561
     17  C         14.1890   88.2160   15.3320 C.2    31  VAL31       0.2260
     18  O         13.4900   89.2350   15.2760 O.2    31  VAL31      -0.2867
     19  CB        15.6180   87.7650   13.2820 C.3    31  VAL31       0.0252
     20  CG1       15.6270   87.0430   11.9720 C.3    31  VAL31       0.0019
     21  CG2       15.5940   89.2090   12.9250 C.3    31  VAL31       0.0019
     22  N         15.7910   90.5270   16.9470 N.3    33  ASP33      -0.1239
     23  CA        16.7760   91.4630   16.5070 C.3    33  ASP33       0.1674
     24  C         17.0940   92.5620   17.4900 C.2    33  ASP33       0.2266
     25  O         16.3270   93.4980   17.6620 O.2    33  ASP33      -0.2867
     26  CB        16.2560   92.0190   15.2150 C.3    33  ASP33       0.1410
     27  CG        17.1090   93.1040   14.5760 C.2    33  ASP33       0.3668
     28  OD1       18.3290   93.1160   14.7330 O.co2  33  ASP33      -0.2456
     29  OD2       16.5350   93.9480   13.8880 O.co2  33  ASP33      -0.2456
     30  N         18.8780   95.0670   16.9270 N.3    35  GLY35      -0.1210
     31  CA        19.3030   96.2560   16.2280 C.3    35  GLY35       0.1956
     32  C         18.1360   97.1310   15.8400 C.2    35  GLY35       0.2612
     33  O         18.3270   98.0630   15.0690 O.2    35  GLY35      -0.2717
     34  N         16.9190   96.8610   16.2740 N.am   36  SER36      -0.1952
     35  CA        15.7510   97.6700   15.9510 C.3    36  SER36       0.1924
     36  C         14.7510   97.4070   17.0600 C.2    36  SER36       0.2314
     37  O         15.0400   96.6080   17.9610 O.2    36  SER36      -0.2863
     38  CB        15.1440   97.2470   14.6520 C.3    36  SER36       0.2116
     39  OG        14.8570   95.8580   14.8010 O.3    36  SER36      -0.2180
     40  N          9.7070  101.2940    7.8230 N.3    76  ILE76      -0.1231
     41  CA        11.0070  101.1200    8.4900 C.3    76  ILE76       0.1692
     42  C         12.0420  100.8580    7.4230 C.2    76  ILE76       0.2592
     43  O         11.7400  100.1860    6.4280 O.2    76  ILE76      -0.2718
     44  CB        11.0900   99.9060    9.4650 C.3    76  ILE76       0.0266
     45  CG1        9.8200   99.6580   10.2430 C.3    76  ILE76       0.0019
     46  CG2       12.1930  100.2230   10.4670 C.3    76  ILE76       0.0020
     47  CD1        9.9590   98.5610   11.3030 C.3    76  ILE76       0.0001
     48  N         13.2580  101.3870    7.5440 N.am   77  HIS77      -0.1962
     49  CA        14.2990  101.0240    6.5800 C.3    77  HIS77       0.1787
     50  C         15.3660  100.3900    7.4390 C.2    77  HIS77       0.2620
     51  O         15.7210  100.9350    8.4900 O.2    77  HIS77      -0.2715
     52  CB        15.0170  102.1750    5.8810 C.3    77  HIS77       0.0785
     53  CG        14.0500  103.2280    5.4070 C.ar   77  HIS77       0.0821
     54  ND1       13.3190  103.2810    4.3000 N.ar   77  HIS77      -0.2267
     55  CD2       13.7660  104.3290    6.1680 C.ar   77  HIS77       0.1154
     56  CE1       12.5950  104.3590    4.3620 C.ar   77  HIS77       0.1986
     57  NE2       12.8680  104.9810    5.4870 N.ar   77  HIS77      -0.2212
     58  N         15.7970   99.2120    7.0440 N.am   78  TYR78      -0.1960
     59  CA        16.8490   98.4800    7.7150 C.3    78  TYR78       0.1771
     60  C         18.0720   98.6260    6.8320 C.2    78  TYR78       0.2620
     61  O         17.9490   99.0020    5.6550 O.2    78  TYR78      -0.2715
     62  CB        16.4600   97.0290    7.8190 C.3    78  TYR78       0.0574
     63  CG        15.3050   96.8750    8.7920 C.ar   78  TYR78      -0.0198
     64  CD1       15.5580   96.7660   10.1470 C.ar   78  TYR78      -0.0009
     65  CD2       14.0130   96.7750    8.3370 C.ar   78  TYR78      -0.0009
     66  CE1       14.5250   96.5340   11.0470 C.ar   78  TYR78       0.0417
     67  CE2       12.9930   96.5480    9.2310 C.ar   78  TYR78       0.0417
     68  CZ        13.2460   96.4090   10.5710 C.ar   78  TYR78       0.1957
     69  OH        12.2200   96.0780   11.4310 O.3    78  TYR78      -0.2866
     70  N         19.2440   98.2760    7.3540 N.am   79  GLY79      -0.1940
     71  CA        20.4550   98.2960    6.5630 C.3    79  GLY79       0.2014
     72  C         20.2900   97.3450    5.3990 C.2    79  GLY79       0.2640
     73  O         20.9170   97.5170    4.3670 O.2    79  GLY79      -0.2714
     74  N         19.4790   96.3000    5.5950 N.am   80  SER80      -0.1935
     75  CA        19.0720   95.3530    4.5900 C.3    80  SER80       0.2058
     76  C         17.8230   95.6490    3.7930 C.2    80  SER80       0.2682
     77  O         17.8200   95.3090    2.6080 O.2    80  SER80      -0.2710
     78  CB        18.8760   94.0020    5.2090 C.3    80  SER80       0.2130
     79  OG        20.1620   93.4380    5.4070 O.3    80  SER80      -0.2179
     80  N         16.7440   96.2880    4.2580 N.am   81  GLY81      -0.1729
     81  CA        15.5410   96.3620    3.4140 C.2    81  GLY81       0.1340
     82  C         14.5030   97.3800    3.8390 C.2    81  GLY81       0.2521
     83  O         14.6270   97.9970    4.8890 O.2    81  GLY81      -0.2816
@<TRIPOS>BOND
     1    77    76    2
     2    81    82    1
     3    81    80    2
     4    76    80    1
     5    76    75    1
     6    82    83    2
     7    54    56   ar
     8    54    53   ar
     9    56    57   ar
    10    73    72    2
    11    75    78    1
    12    75    74    1
    13    78    79    1
    14    72    74   am
    15    72    71    1
    16    53    52    1
    17    53    55   ar
    18    14    12   am
    19    57    55   ar
    20    61    60    2
    21    52    49    1
    22    43    42    2
    23    71    70    1
    24    49    50    1
    25    49    48    1
    26    12    13    2
    27    12    11    1
    28    60    70   am
    29    60    59    1
    30     5     2    1
    31    58    50   am
    32    58    59    1
    33    42    48   am
    34    42    41    1
    35    50    51    2
    36    59    62    1
    37    11    10    1
    38    62    63    1
    39    40    41    1
    40    65    63   ar
    41    65    67   ar
    42     2     1    1
    43     2     3    1
    44    41    44    1
    45    10     7    1
    46    63    64   ar
    47     3     4    2
    48     3     6   am
    49    67    68   ar
    50     6     7    1
    51    44    45    1
    52    44    46    1
    53     7     8    1
    54    64    66   ar
    55    45    47    1
    56    68    66   ar
    57    68    69    1
    58     9     8    2
    59    20    19    1
    60    21    19    1
    61    19    16    1
    62    15    16    1
    63    29    27   ar
    64    16    17    1
    65    27    28   ar
    66    27    26    1
    67    38    39    1
    68    38    35    1
    69    33    32    2
    70    26    23    1
    71    18    17    2
    72    32    31    1
    73    32    34   am
    74    35    34    1
    75    35    36    1
    76    31    30    1
    77    23    22    1
    78    23    24    1
    79    36    37    2
    80    24    25    2
