@<TRIPOS>MOLECULE
tmp/1lywC00.pdb
 95 92 0 0 0
SMALL
GASTEIGER

@<TRIPOS>ATOM
      1  N        155.1620   -3.1270  117.3600 N.3     8  TYR8       -0.1241
      2  CA       154.8730   -4.3550  116.6270 C.3     8  TYR8        0.1605
      3  C        155.3020   -4.2980  115.1600 C.2     8  TYR8        0.2264
      4  O        155.2930   -5.2980  114.4700 O.2     8  TYR8       -0.2867
      5  CB       153.3960   -4.7920  116.7890 C.3     8  TYR8        0.0534
      6  CG       152.9730   -5.0510  118.2340 C.ar    8  TYR8       -0.0201
      7  CD1      153.7940   -4.6720  119.2950 C.ar    8  TYR8       -0.0009
      8  CD2      151.7410   -5.6230  118.5400 C.ar    8  TYR8       -0.0009
      9  CE1      153.4090   -4.8460  120.6120 C.ar    8  TYR8        0.0417
     10  CE2      151.3380   -5.8030  119.8720 C.ar    8  TYR8        0.0417
     11  CZ       152.1830   -5.4060  120.9030 C.ar    8  TYR8        0.1957
     12  OH       151.8270   -5.5260  122.2350 O.3     8  TYR8       -0.2866
     13  N        151.8330   -4.9030  128.4380 N.3    34  SER34      -0.1217
     14  CA       150.8150   -5.9250  128.3680 C.3    34  SER34       0.1889
     15  C        151.3470   -7.0760  129.2220 C.2    34  SER34       0.2288
     16  O        152.5150   -7.0550  129.6300 O.2    34  SER34      -0.2866
     17  CB       150.6100   -6.3500  126.9190 C.3    34  SER34       0.2089
     18  OG       151.8310   -6.7270  126.3200 O.3    34  SER34      -0.2183
     19  N        150.1430  -10.6750  128.5990 N.3    36  ASN36      -0.1225
     20  CA       149.7880  -11.9610  128.0410 C.3    36  ASN36       0.1785
     21  C        150.7700  -12.4060  126.9830 C.2    36  ASN36       0.2597
     22  O        151.4050  -11.5750  126.3330 O.2    36  ASN36      -0.2718
     23  CB       148.3850  -11.9080  127.4550 C.3    36  ASN36       0.1169
     24  CG       147.3260  -11.5170  128.4910 C.2    36  ASN36       0.2627
     25  OD1      147.0090  -10.3380  128.6710 O.2    36  ASN36      -0.2716
     26  ND2      146.7480  -12.5140  129.1440 N.am   36  ASN36      -0.0877
     27  N        150.9140  -13.7280  126.8570 N.am   37  LEU37      -0.1966
     28  CA       151.7950  -14.3430  125.8670 C.3    37  LEU37       0.1728
     29  C        150.9640  -15.1270  124.8820 C.2    37  LEU37       0.2616
     30  O        150.0920  -15.9060  125.2760 O.2    37  LEU37      -0.2715
     31  CB       152.7850  -15.3190  126.5020 C.3    37  LEU37       0.0311
     32  CG       153.5580  -16.2190  125.5180 C.3    37  LEU37       0.0022
     33  CD1      154.5890  -15.5130  124.6900 C.3    37  LEU37       0.0001
     34  CD2      154.2250  -17.2920  126.3280 C.3    37  LEU37       0.0001
     35  N        151.2290  -14.8980  123.6010 N.am   38  TRP38      -0.1974
     36  CA       150.5650  -15.6090  122.5230 C.3    38  TRP38       0.1640
     37  C        151.5610  -15.7390  121.3860 C.2    38  TRP38       0.2290
     38  O        152.5040  -14.9400  121.2850 O.2    38  TRP38      -0.2864
     39  CB       149.3000  -14.8980  122.0600 C.3    38  TRP38       0.0576
     40  CG       149.4870  -13.6030  121.3380 C.ar   38  TRP38       0.0006
     41  CD1      149.3450  -12.3500  121.8540 C.ar   38  TRP38       0.0946
     42  CD2      149.7530  -13.4310  119.9410 C.ar   38  TRP38       0.0152
     43  NE1      149.4880  -11.4120  120.8690 N.ar   38  TRP38      -0.2442
     44  CE2      149.7450  -12.0450  119.6850 C.ar   38  TRP38       0.0810
     45  CE3      150.0030  -14.3150  118.8810 C.ar   38  TRP38       0.0012
     46  CZ2      149.9790  -11.5200  118.4150 C.ar   38  TRP38       0.0191
     47  CZ3      150.2350  -13.7930  117.6230 C.ar   38  TRP38       0.0001
     48  CH2      150.2240  -12.4060  117.4010 C.ar   38  TRP38       0.0015
     49  N        139.8170  -17.4160  123.0360 N.3    72  PHE72      -0.1241
     50  CA       139.9340  -16.0070  123.4050 C.3    72  PHE72       0.1605
     51  C        139.7140  -15.1680  122.1630 C.2    72  PHE72       0.2264
     52  O        139.8280  -15.6710  121.0490 O.2    72  PHE72      -0.2867
     53  CB       141.2990  -15.6910  124.0200 C.3    72  PHE72       0.0534
     54  CG       142.4500  -15.7630  123.0470 C.ar   72  PHE72      -0.0203
     55  CD1      142.8370  -14.6460  122.3270 C.ar   72  PHE72      -0.0042
     56  CD2      143.1580  -16.9470  122.8640 C.ar   72  PHE72      -0.0042
     57  CE1      143.9100  -14.7080  121.4380 C.ar   72  PHE72      -0.0003
     58  CE2      144.2270  -17.0080  121.9810 C.ar   72  PHE72      -0.0003
     59  CZ       144.5980  -15.8940  121.2710 C.ar   72  PHE72      -0.0000
     60  N        140.0420  -10.8090  120.8990 N.3    74  ILE74      -0.1245
     61  CA       140.2690   -9.4000  121.1850 C.3    74  ILE74       0.1561
     62  C        140.2140   -8.5880  119.8890 C.2    74  ILE74       0.2260
     63  O        140.9150   -8.9060  118.9340 O.2    74  ILE74      -0.2867
     64  CB       141.6430   -9.2140  121.8260 C.3    74  ILE74       0.0252
     65  CG1      141.8410  -10.2330  122.9480 C.3    74  ILE74       0.0019
     66  CG2      141.7920   -7.7930  122.2930 C.3    74  ILE74       0.0019
     67  CD1      140.8930  -10.0320  124.1010 C.3    74  ILE74       0.0001
     68  N        141.3730   -5.7410  117.9470 N.3    76  TYR76      -0.1241
     69  CA       142.4430   -4.7510  117.8460 C.3    76  TYR76       0.1605
     70  C        142.0230   -3.5290  117.0190 C.2    76  TYR76       0.2264
     71  O        142.8560   -2.6850  116.6840 O.2    76  TYR76      -0.2867
     72  CB       143.6860   -5.4030  117.2170 C.3    76  TYR76       0.0534
     73  CG       144.5810   -6.1120  118.2100 C.ar   76  TYR76      -0.0201
     74  CD1      144.1640   -6.3280  119.5260 C.ar   76  TYR76      -0.0009
     75  CD2      145.8690   -6.5170  117.8530 C.ar   76  TYR76      -0.0009
     76  CE1      145.0050   -6.9220  120.4620 C.ar   76  TYR76       0.0417
     77  CE2      146.7240   -7.1130  118.7850 C.ar   76  TYR76       0.0417
     78  CZ       146.2830   -7.3080  120.0880 C.ar   76  TYR76       0.1957
     79  OH       147.1210   -7.8570  121.0310 O.3    76  TYR76      -0.2866
     80  N        142.4490  -10.5760  117.3050 N.3    81  LEU81      -0.1245
     81  CA       143.4130  -11.5850  117.6710 C.3    81  LEU81       0.1561
     82  C        142.6120  -12.6560  118.4110 C.2    81  LEU81       0.2260
     83  O        141.9150  -12.3580  119.3990 O.2    81  LEU81      -0.2867
     84  CB       144.4660  -10.9770  118.5920 C.3    81  LEU81       0.0270
     85  CG       145.5390  -11.9260  119.1030 C.3    81  LEU81       0.0019
     86  CD1      146.3950  -12.4970  117.9780 C.3    81  LEU81       0.0001
     87  CD2      146.3590  -11.1240  120.0760 C.3    81  LEU81       0.0001
     88  N        143.7290  -20.9280  124.5290 N.3    85  LEU85      -0.1245
     89  CA       144.7800  -21.1610  125.5030 C.3    85  LEU85       0.1561
     90  C        145.3410  -22.5980  125.4380 C.2    85  LEU85       0.2260
     91  O        144.6600  -23.5280  125.0120 O.2    85  LEU85      -0.2867
     92  CB       144.2520  -20.8250  126.9080 C.3    85  LEU85       0.0270
     93  CG       143.6740  -19.4100  127.0840 C.3    85  LEU85       0.0019
     94  CD1      142.8010  -19.3000  128.2990 C.3    85  LEU85       0.0001
     95  CD2      144.7490  -18.3500  127.1280 C.3    85  LEU85       0.0001
@<TRIPOS>BOND
     1     4     3    2
     2     3     2    1
     3     2     5    1
     4     2     1    1
     5    71    70    2
     6     5     6    1
     7    70    69    1
     8    72    69    1
     9    72    73    1
    10    80    81    1
    11    48    47   ar
    12    48    46   ar
    13    47    45   ar
    14    81    82    1
    15    81    84    1
    16    69    68    1
    17    75    73   ar
    18    75    77   ar
    19    86    85    1
    20    73    74   ar
    21     6     8   ar
    22     6     7   ar
    23    82    83    2
    24    46    44   ar
    25     8    10   ar
    26    84    85    1
    27    77    78   ar
    28    45    42   ar
    29    63    62    2
    30    85    87    1
    31     7     9   ar
    32    74    76   ar
    33    44    42   ar
    34    44    43   ar
    35    10    11   ar
    36    62    61    1
    37    42    40   ar
    38    78    76   ar
    39    78    79    1
    40     9    11   ar
    41    43    41   ar
    42    60    61    1
    43    11    12    1
    44    52    51    2
    45    61    64    1
    46    59    57   ar
    47    59    58   ar
    48    38    37    2
    49    40    41   ar
    50    40    39    1
    51    37    36    1
    52    57    55   ar
    53    64    66    1
    54    64    65    1
    55    58    56   ar
    56    39    36    1
    57    51    50    1
    58    55    54   ar
    59    36    35    1
    60    56    54   ar
    61    65    67    1
    62    49    50    1
    63    54    53    1
    64    50    53    1
    65    35    29   am
    66    88    89    1
    67    33    32    1
    68    29    30    2
    69    29    28    1
    70    91    90    2
    71    90    89    1
    72    89    92    1
    73    32    34    1
    74    32    31    1
    75    28    31    1
    76    28    27    1
    77    18    17    1
    78    22    21    2
    79    27    21   am
    80    92    93    1
    81    17    14    1
    82    21    20    1
    83    93    95    1
    84    93    94    1
    85    23    20    1
    86    23    24    1
    87    20    19    1
    88    14    13    1
    89    14    15    1
    90    24    25    2
    91    24    26   am
    92    15    16    2
