@<TRIPOS>MOLECULE
tmp/1lzjA01.pdb
 102 100 0 0 0
SMALL
GASTEIGER

@<TRIPOS>ATOM
      1  N          8.9570   48.3300   41.5230 N.3    59  PHE59      -0.1227
      2  CA         8.6870   47.7230   42.8120 C.3    59  PHE59       0.1736
      3  C          7.6270   48.5630   43.4890 C.2    59  PHE59       0.2595
      4  O          7.6590   49.7940   43.4520 O.2    59  PHE59      -0.2718
      5  CB         9.9620   47.6560   43.6550 C.3    59  PHE59       0.0547
      6  CG        10.9660   46.6900   43.1230 C.ar   59  PHE59      -0.0202
      7  CD1       11.6820   46.9830   41.9630 C.ar   59  PHE59      -0.0042
      8  CD2       11.1470   45.4520   43.7270 C.ar   59  PHE59      -0.0042
      9  CE1       12.5600   46.0530   41.4110 C.ar   59  PHE59      -0.0003
     10  CE2       12.0200   44.5160   43.1820 C.ar   59  PHE59      -0.0003
     11  CZ        12.7240   44.8170   42.0270 C.ar   59  PHE59      -0.0000
     12  N          6.6490   47.8950   44.0840 N.am   60  ALA60      -0.1966
     13  CA         5.5800   48.6050   44.7800 C.3    60  ALA60       0.1728
     14  C          5.3170   47.8450   46.0650 C.2    60  ALA60       0.2616
     15  O          4.4850   46.9350   46.1220 O.2    60  ALA60      -0.2715
     16  CB         4.3350   48.6650   43.9210 C.3    60  ALA60       0.0334
     17  N          6.0640   48.2240   47.0890 N.am   61  ILE61      -0.1963
     18  CA         6.0070   47.5970   48.3920 C.3    61  ILE61       0.1727
     19  C          5.2840   48.4840   49.3840 C.2    61  ILE61       0.2616
     20  O          5.4060   49.7160   49.3480 O.2    61  ILE61      -0.2715
     21  CB         7.4430   47.3430   48.8880 C.3    61  ILE61       0.0290
     22  CG1        8.1600   46.4130   47.9100 C.3    61  ILE61       0.0022
     23  CG2        7.4330   46.7780   50.2910 C.3    61  ILE61       0.0023
     24  CD1        7.5260   45.0720   47.7940 C.3    61  ILE61       0.0001
     25  N          4.5350   47.8460   50.2780 N.am   62  LYS62      -0.1977
     26  CA         3.7890   48.5440   51.3080 C.3    62  LYS62       0.1596
     27  C          2.9070   49.6500   50.7310 C.2    62  LYS62       0.2287
     28  O          2.1510   49.4100   49.7980 O.2    62  LYS62      -0.2864
     29  CB         4.7590   49.0810   52.3670 C.3    62  LYS62       0.0298
     30  CG         5.5450   47.9550   53.0310 C.3    62  LYS62       0.0038
     31  CD         6.7140   48.4560   53.8600 C.3    62  LYS62       0.0206
     32  CE         7.5900   47.2870   54.2920 C.3    62  LYS62       0.1093
     33  NZ         8.8950   47.7450   54.8510 N.3    62  LYS62      -0.1314
     34  N          3.4640   51.9830   48.7400 N.3    64  TYR64      -0.1241
     35  CA         3.7190   52.4170   47.3730 C.3    64  TYR64       0.1605
     36  C          2.8240   51.7840   46.3240 C.2    64  TYR64       0.2264
     37  O          2.8570   52.1910   45.1550 O.2    64  TYR64      -0.2867
     38  CB         5.1990   52.2500   47.0200 C.3    64  TYR64       0.0534
     39  CG         6.0620   53.3360   47.6390 C.ar   64  TYR64      -0.0201
     40  CD1        6.0490   53.5630   49.0180 C.ar   64  TYR64      -0.0009
     41  CD2        6.8850   54.1420   46.8540 C.ar   64  TYR64      -0.0009
     42  CE1        6.8370   54.5600   49.5970 C.ar   64  TYR64       0.0417
     43  CE2        7.6790   55.1490   47.4250 C.ar   64  TYR64       0.0417
     44  CZ         7.6500   55.3450   48.7930 C.ar   64  TYR64       0.1957
     45  OH         8.4410   56.3060   49.3760 O.3    64  TYR64      -0.2866
     46  N         12.6070   51.4420   36.8650 N.3   128  VAL128     -0.1231
     47  CA        12.2560   52.7600   37.3840 C.3   128  VAL128      0.1692
     48  C         11.5290   52.7480   38.7210 C.2   128  VAL128      0.2592
     49  O         11.0140   51.7130   39.1580 O.2   128  VAL128     -0.2718
     50  CB        11.3420   53.5450   36.3640 C.3   128  VAL128      0.0266
     51  CG1       12.0390   53.6990   35.0030 C.3   128  VAL128      0.0020
     52  CG2        9.9820   52.8290   36.1970 C.3   128  VAL128      0.0020
     53  N         11.5070   53.9120   39.3520 N.am  129  ASP129     -0.1960
     54  CA        10.7670   54.1300   40.6030 C.3   129  ASP129      0.1840
     55  C          9.2700   54.1850   40.2180 C.2   129  ASP129      0.2622
     56  O          8.8960   54.5980   39.1060 O.2   129  ASP129     -0.2715
     57  CB        11.1580   55.4740   41.2330 C.3   129  ASP129      0.1450
     58  CG        12.3800   55.3800   42.1390 C.2   129  ASP129      0.3671
     59  OD1       13.1270   54.3940   42.0690 O.co2 129  ASP129     -0.2456
     60  OD2       12.5730   56.3320   42.9110 O.co2 129  ASP129     -0.2456
     61  N          8.4080   53.8090   41.1580 N.am  130  VAL130     -0.1963
     62  CA         6.9710   53.7850   40.9250 C.3   130  VAL130      0.1727
     63  C          6.2370   55.0710   41.2980 C.2   130  VAL130      0.2616
     64  O          5.1360   55.3130   40.7950 O.2   130  VAL130     -0.2715
     65  CB         6.3170   52.6010   41.7050 C.3   130  VAL130      0.0290
     66  CG1        6.2460   52.9130   43.1970 C.3   130  VAL130      0.0023
     67  CG2        4.9310   52.3080   41.1350 C.3   130  VAL130      0.0023
     68  N          6.8400   55.9020   42.1460 N.am  131  ASP131     -0.1971
     69  CA         6.2040   57.1480   42.6170 C.3   131  ASP131      0.1709
     70  C          6.4630   58.2390   41.5890 C.2   131  ASP131      0.2293
     71  O          7.0120   59.3190   41.8780 O.2   131  ASP131     -0.2864
     72  CB         6.7800   57.5510   43.9890 C.3   131  ASP131      0.1436
     73  CG         8.2930   57.7640   43.9670 C.2   131  ASP131      0.3671
     74  OD1        8.7740   58.6870   44.6600 O.co2 131  ASP131     -0.2456
     75  OD2        9.0350   57.0420   43.2720 O.co2 131  ASP131     -0.2456
     76  N         20.8860   59.1100   38.4930 N.3   184  MET184     -0.1245
     77  CA        19.8580   58.8330   39.5080 C.3   184  MET184      0.1570
     78  C         19.4540   57.3720   39.4740 C.2   184  MET184      0.2261
     79  O         19.2860   56.7760   38.4050 O.2   184  MET184     -0.2867
     80  CB        18.6050   59.7330   39.3720 C.3   184  MET184      0.0387
     81  CG        17.5410   59.5930   40.5520 C.3   184  MET184      0.0595
     82  SD        16.5700   61.0330   40.7130 S.3   184  MET184     -0.1393
     83  CE        16.0730   60.8240   42.3460 C.3   184  MET184      0.0692
     84  N         16.6710   56.0990   40.0440 N.3   186  ALA186     -0.1245
     85  CA        15.2790   55.9160   39.6580 C.3   186  ALA186      0.1562
     86  C         14.9940   55.6010   38.2030 C.2   186  ALA186      0.2260
     87  O         13.8300   55.3950   37.8480 O.2   186  ALA186     -0.2867
     88  CB        14.4850   57.1660   40.0670 C.3   186  ALA186      0.0290
     89  N         24.1580   56.8990   49.6580 N.3   218  TRP218     -0.1241
     90  CA        22.8880   56.8440   48.9420 C.3   218  TRP218      0.1605
     91  C         22.5300   55.4450   48.4540 C.2   218  TRP218      0.2264
     92  O         21.9140   55.2550   47.4070 O.2   218  TRP218     -0.2867
     93  CB        22.8320   57.8750   47.8110 C.3   218  TRP218      0.0550
     94  CG        22.6490   59.2710   48.3410 C.ar  218  TRP218      0.0003
     95  CD1       23.6040   60.2360   48.4410 C.ar  218  TRP218      0.0946
     96  CD2       21.4700   59.8040   48.9710 C.ar  218  TRP218      0.0152
     97  NE1       23.1020   61.3350   49.1020 N.ar  218  TRP218     -0.2442
     98  CE2       21.7960   61.0980   49.4390 C.ar  218  TRP218      0.0810
     99  CE3       20.1720   59.3090   49.1870 C.ar  218  TRP218      0.0012
    100  CZ2       20.8750   61.9110   50.1150 C.ar  218  TRP218      0.0191
    101  CZ3       19.2460   60.1240   49.8660 C.ar  218  TRP218      0.0001
    102  CH2       19.6120   61.4080   50.3200 C.ar  218  TRP218      0.0015
@<TRIPOS>BOND
     1    51    50    1
     2    52    50    1
     3    50    47    1
     4    46    47    1
     5    47    48    1
     6    87    86    2
     7    86    85    1
     8    79    78    2
     9    76    77    1
    10    48    49    2
    11    48    53   am
    12    56    55    2
    13    53    54    1
    14    80    77    1
    15    80    81    1
    16    78    77    1
    17    85    84    1
    18    85    88    1
    19    55    54    1
    20    55    61   am
    21    81    82    1
    22    54    57    1
    23    82    83    1
    24    64    63    2
    25    62    61    1
    26    62    63    1
    27    62    65    1
    28    67    65    1
    29    57    58    1
    30    63    68   am
    31     9     7   ar
    32     9    11   ar
    33     1     2    1
    34    70    71    2
    35    70    69    1
    36    65    66    1
    37     7     6   ar
    38    11    10   ar
    39    59    58   ar
    40    58    60   ar
    41    68    69    1
    42    69    72    1
    43     2     3    1
    44     2     5    1
    45     6     5    1
    46     6     8   ar
    47    10     8   ar
    48    75    73   ar
    49     4     3    2
    50     3    12   am
    51    16    13    1
    52    73    72    1
    53    73    74   ar
    54    12    13    1
    55    13    14    1
    56    37    36    2
    57    14    15    2
    58    14    17   am
    59    36    35    1
    60    41    43   ar
    61    41    39   ar
    62    38    35    1
    63    38    39    1
    64    17    18    1
    65    35    34    1
    66    92    91    2
    67    43    44   ar
    68    39    40   ar
    69    24    22    1
    70    93    94    1
    71    93    90    1
    72    22    21    1
    73    94    95   ar
    74    94    96   ar
    75    18    21    1
    76    18    19    1
    77    95    97   ar
    78    91    90    1
    79    44    45    1
    80    44    42   ar
    81    21    23    1
    82    90    89    1
    83    96    99   ar
    84    96    98   ar
    85    40    42   ar
    86    97    98   ar
    87    99   101   ar
    88    20    19    2
    89    19    25   am
    90    98   100   ar
    91    28    27    2
    92   101   102   ar
    93   100   102   ar
    94    25    26    1
    95    27    26    1
    96    26    29    1
    97    29    30    1
    98    30    31    1
    99    31    32    1
   100    32    33    1
