@<TRIPOS>MOLECULE
tmp/1lzjA00.pdb
 113 110 0 0 0
SMALL
GASTEIGER

@<TRIPOS>ATOM
      1  N         20.7640   62.7770   37.0810 N.3   151  HIS151     -0.1227
      2  CA        19.9480   63.1770   38.2230 C.3   151  HIS151      0.1737
      3  C         19.5700   64.6540   38.0150 C.2   151  HIS151      0.2438
      4  O         20.4430   65.5030   37.7650 O.2   151  HIS151     -0.2733
      5  CB        20.7710   62.9860   39.4920 C.3   151  HIS151      0.0758
      6  CG        20.0090   63.2300   40.7530 C.ar  151  HIS151      0.0818
      7  ND1       19.9040   62.2970   41.7640 N.ar  151  HIS151     -0.2268
      8  CD2       19.3580   64.3350   41.1830 C.ar  151  HIS151      0.1154
      9  CE1       19.2200   62.8250   42.7690 C.ar  151  HIS151      0.1986
     10  NE2       18.8810   64.0590   42.4390 N.ar  151  HIS151     -0.2212
     11  N         18.2820   65.0010   38.1630 N.am  152  PRO152     -0.2718
     12  CA        17.8310   66.3820   37.9520 C.3   152  PRO152      0.1535
     13  C         18.3940   67.4690   38.8470 C.2   152  PRO152      0.2599
     14  O         18.3890   68.6370   38.4550 O.2   152  PRO152     -0.2715
     15  CB        16.3040   66.2660   38.0510 C.3   152  PRO152      0.0310
     16  CG        16.1030   65.1850   39.0240 C.3   152  PRO152      0.0237
     17  CD        17.1760   64.1560   38.6590 C.3   152  PRO152      0.0939
     18  N         18.8840   67.1010   40.0200 N.am  153  SER153     -0.1936
     19  CA        19.4280   68.1040   40.9390 C.3   153  SER153      0.2055
     20  C         20.9200   68.3550   40.7350 C.2   153  SER153      0.2643
     21  O         21.4640   69.3060   41.3010 O.2   153  SER153     -0.2714
     22  CB        19.2130   67.6640   42.3880 C.3   153  SER153      0.2130
     23  OG        17.8390   67.5410   42.7160 O.3   153  SER153     -0.2179
     24  N         21.5940   67.5430   39.9240 N.am  154  PHE154     -0.1973
     25  CA        23.0370   67.6990   39.7960 C.3   154  PHE154      0.1639
     26  C         23.6020   67.8070   38.3960 C.2   154  PHE154      0.2290
     27  O         24.8310   67.7960   38.2410 O.2   154  PHE154     -0.2864
     28  CB        23.7440   66.5210   40.4950 C.3   154  PHE154      0.0560
     29  CG        23.3830   66.3550   41.9440 C.ar  154  PHE154     -0.0200
     30  CD1       22.3910   65.4610   42.3400 C.ar  154  PHE154     -0.0042
     31  CD2       24.0140   67.1240   42.9200 C.ar  154  PHE154     -0.0042
     32  CE1       22.0270   65.3370   43.6880 C.ar  154  PHE154     -0.0003
     33  CE2       23.6550   67.0070   44.2700 C.ar  154  PHE154     -0.0003
     34  CZ        22.6580   66.1110   44.6480 C.ar  154  PHE154     -0.0000
     35  N         27.0970   63.8570   45.2480 N.3   163  THR163     -0.1218
     36  CA        27.0020   63.1260   46.5020 C.3   163  THR163      0.1862
     37  C         27.3940   61.6490   46.3830 C.2   163  THR163      0.2287
     38  O         26.6670   60.7630   46.8230 O.2   163  THR163     -0.2866
     39  CB        25.5870   63.2330   47.1160 C.3   163  THR163      0.1770
     40  OG1       24.6250   62.7570   46.1680 O.3   163  THR163     -0.2211
     41  CG2       25.2610   64.6830   47.4700 C.3   163  THR163      0.0375
     42  N         26.3980   62.4910   37.7500 N.3   182  TYR182     -0.1241
     43  CA        25.7390   61.8660   38.8950 C.3   182  TYR182      0.1605
     44  C         24.4230   61.3030   38.3260 C.2   182  TYR182      0.2264
     45  O         23.5040   62.0360   37.9420 O.2   182  TYR182     -0.2867
     46  CB        25.4380   62.8590   40.0270 C.3   182  TYR182      0.0534
     47  CG        25.0160   62.1350   41.2900 C.ar  182  TYR182     -0.0201
     48  CD1       25.9620   61.5230   42.1230 C.ar  182  TYR182     -0.0009
     49  CD2       23.6710   61.9900   41.6220 C.ar  182  TYR182     -0.0009
     50  CE1       25.5800   60.7900   43.2420 C.ar  182  TYR182      0.0417
     51  CE2       23.2800   61.2580   42.7470 C.ar  182  TYR182      0.0417
     52  CZ        24.2380   60.6610   43.5470 C.ar  182  TYR182      0.1957
     53  OH        23.8670   59.9280   44.6520 O.3   182  TYR182     -0.2866
     54  N         20.8860   59.1100   38.4930 N.3   184  MET184     -0.1245
     55  CA        19.8580   58.8330   39.5080 C.3   184  MET184      0.1570
     56  C         19.4540   57.3720   39.4740 C.2   184  MET184      0.2261
     57  O         19.2860   56.7760   38.4050 O.2   184  MET184     -0.2867
     58  CB        18.6050   59.7330   39.3720 C.3   184  MET184      0.0387
     59  CG        17.5410   59.5930   40.5520 C.3   184  MET184      0.0595
     60  SD        16.5700   61.0330   40.7130 S.3   184  MET184     -0.1393
     61  CE        16.0730   60.8240   42.3460 C.3   184  MET184      0.0692
     62  N         24.1580   56.8990   49.6580 N.3   218  TRP218     -0.1241
     63  CA        22.8880   56.8440   48.9420 C.3   218  TRP218      0.1605
     64  C         22.5300   55.4450   48.4540 C.2   218  TRP218      0.2264
     65  O         21.9140   55.2550   47.4070 O.2   218  TRP218     -0.2867
     66  CB        22.8320   57.8750   47.8110 C.3   218  TRP218      0.0550
     67  CG        22.6490   59.2710   48.3410 C.ar  218  TRP218      0.0003
     68  CD1       23.6040   60.2360   48.4410 C.ar  218  TRP218      0.0946
     69  CD2       21.4700   59.8040   48.9710 C.ar  218  TRP218      0.0152
     70  NE1       23.1020   61.3350   49.1020 N.ar  218  TRP218     -0.2442
     71  CE2       21.7960   61.0980   49.4390 C.ar  218  TRP218      0.0810
     72  CE3       20.1720   59.3090   49.1870 C.ar  218  TRP218      0.0012
     73  CZ2       20.8750   61.9110   50.1150 C.ar  218  TRP218      0.0191
     74  CZ3       19.2460   60.1240   49.8660 C.ar  218  TRP218      0.0001
     75  CH2       19.6120   61.4080   50.3200 C.ar  218  TRP218      0.0015
     76  N         22.0100   53.6640   44.7740 N.3   221  GLU221     -0.1245
     77  CA        22.3840   54.7240   43.8380 C.3   221  GLU221      0.1567
     78  C         23.8850   55.0080   43.9040 C.2   221  GLU221      0.2260
     79  O         24.5100   55.3270   42.8830 O.2   221  GLU221     -0.2867
     80  CB        21.5920   55.9960   44.1150 C.3   221  GLU221      0.0388
     81  CG        21.9650   57.1990   43.2610 C.3   221  GLU221      0.1160
     82  CD        21.0000   58.3420   43.4840 C.2   221  GLU221      0.3649
     83  OE1       19.9320   58.3500   42.8390 O.co2 221  GLU221     -0.2457
     84  OE2       21.2940   59.2190   44.3310 O.co2 221  GLU221     -0.2457
     85  N         11.5030   66.6010   38.6720 N.3   244  ASP244     -0.1239
     86  CA        10.6060   66.8650   39.8000 C.3   244  ASP244      0.1674
     87  C         10.2540   68.3410   39.6170 C.2   244  ASP244      0.2266
     88  O         11.0580   69.2330   39.9450 O.2   244  ASP244     -0.2867
     89  CB        11.3200   66.6400   41.1320 C.3   244  ASP244      0.1410
     90  CG        10.4040   66.8760   42.3270 C.2   244  ASP244      0.3668
     91  OD1        9.4850   67.7010   42.1890 O.co2 244  ASP244     -0.2456
     92  OD2       10.6090   66.2630   43.3960 O.co2 244  ASP244     -0.2456
     93  N          9.9040   70.5960   42.8470 N.3   247  LEU247     -0.1231
     94  CA        11.1950   70.9670   43.3880 C.3   247  LEU247      0.1693
     95  C         12.0470   71.8620   42.5050 C.2   247  LEU247      0.2591
     96  O         12.6940   72.7890   42.9990 O.2   247  LEU247     -0.2718
     97  CB        12.0160   69.7080   43.6830 C.3   247  LEU247      0.0284
     98  CG        13.3980   69.9130   44.3000 C.3   247  LEU247      0.0019
     99  CD1       13.2120   70.2700   45.7610 C.3   247  LEU247      0.0001
    100  CD2       14.2600   68.6450   44.1800 C.3   247  LEU247      0.0001
    101  N         12.0050   71.6320   41.1950 N.am  248  LEU248     -0.1980
    102  CA        12.9150   72.2990   40.2790 C.3   248  LEU248      0.1596
    103  C         12.3520   73.1450   39.1670 C.2   248  LEU248      0.2287
    104  O         13.1060   73.7070   38.3750 O.2   248  LEU248     -0.2864
    105  CB        13.8480   71.2300   39.6730 C.3   248  LEU248      0.0297
    106  CG        14.6220   70.3740   40.6780 C.3   248  LEU248      0.0022
    107  CD1       15.1180   69.0920   39.9920 C.3   248  LEU248      0.0001
    108  CD2       15.7780   71.1780   41.2500 C.3   248  LEU248      0.0001
    109  N          8.3170   63.1300   39.1120 N.3   261  ALA261     -0.1245
    110  CA         7.9880   62.7140   40.4690 C.3   261  ALA261      0.1562
    111  C          6.5630   63.0960   40.8430 C.2   261  ALA261      0.2260
    112  O          6.0860   64.1820   40.5060 O.2   261  ALA261     -0.2867
    113  CB         8.9680   63.3570   41.4560 C.3   261  ALA261      0.0290
@<TRIPOS>BOND
     1     1     2    1
     2    42    43    1
     3     4     3    2
     4    45    44    2
     5    12    15    1
     6    12    11    1
     7    12    13    1
     8     3    11   am
     9     3     2    1
    10    15    16    1
    11    11    17    1
    12     2     5    1
    13    27    26    2
    14    44    43    1
    15   104   103    2
    16    26    25    1
    17    57    56    2
    18    14    13    2
    19    54    55    1
    20    17    16    1
    21    85    86    1
    22    13    18   am
    23    43    46    1
    24   109   110    1
    25   103   102    1
    26    58    55    1
    27    58    59    1
    28    56    55    1
    29     5     6    1
    30    87    86    1
    31    87    88    2
    32   105   102    1
    33   105   106    1
    34    25    24    1
    35    25    28    1
    36    86    89    1
    37    24    20   am
    38   107   106    1
    39    18    19    1
    40    46    47    1
    41   102   101    1
    42   110   111    1
    43   110   113    1
    44    28    29    1
    45   112   111    2
    46    59    60    1
    47   106   108    1
    48    60    61    1
    49    20    19    1
    50    20    21    2
    51     6     8   ar
    52     6     7   ar
    53    19    22    1
    54    89    90    1
    55     8    10   ar
    56   101    95   am
    57    47    49   ar
    58    47    48   ar
    59    49    51   ar
    60     7     9   ar
    61    29    30   ar
    62    29    31   ar
    63    48    50   ar
    64    91    90   ar
    65    90    92   ar
    66    30    32   ar
    67    22    23    1
    68    10     9   ar
    69    95    96    2
    70    95    94    1
    71    51    52   ar
    72    83    82   ar
    73    93    94    1
    74    79    78    2
    75    31    33   ar
    76    50    52   ar
    77    81    82    1
    78    81    80    1
    79    94    97    1
    80    82    84   ar
    81    52    53    1
    82    97    98    1
    83    32    34   ar
    84    77    78    1
    85    77    80    1
    86    77    76    1
    87   100    98    1
    88    33    34   ar
    89    98    99    1
    90    35    36    1
    91    40    39    1
    92    37    36    1
    93    37    38    2
    94    36    39    1
    95    39    41    1
    96    65    64    2
    97    66    67    1
    98    66    63    1
    99    67    68   ar
   100    67    69   ar
   101    68    70   ar
   102    64    63    1
   103    63    62    1
   104    69    72   ar
   105    69    71   ar
   106    70    71   ar
   107    72    74   ar
   108    71    73   ar
   109    74    75   ar
   110    73    75   ar
