@<TRIPOS>MOLECULE
tmp/1lzrA00.pdb
 172 166 0 0 0
SMALL
GASTEIGER

@<TRIPOS>ATOM
      1  N         12.9920   11.0790   22.5130 N.3    35  GLU35      -0.1245
      2  CA        12.0350   10.5560   23.4570 C.3    35  GLU35       0.1567
      3  C         10.5930   10.7280   22.9980 C.2    35  GLU35       0.2260
      4  O          9.8250    9.7590   23.0680 O.2    35  GLU35      -0.2867
      5  CB        12.1970   11.2030   24.8430 C.3    35  GLU35       0.0388
      6  CG        13.4540   10.7080   25.5650 C.3    35  GLU35       0.1160
      7  CD        13.4120    9.2720   25.9890 C.2    35  GLU35       0.3649
      8  OE1       12.4200    8.5830   25.8570 O.co2  35  GLU35      -0.2457
      9  OE2       14.5230    8.9090   26.4550 O.co2  35  GLU35      -0.2457
     10  N          4.0170    6.4890   27.2750 N.3    44  ASN44      -0.1240
     11  CA         4.4560    5.1410   26.8840 C.3    44  ASN44       0.1653
     12  C          4.3180    4.2360   28.1110 C.2    44  ASN44       0.2266
     13  O          5.0150    4.4680   29.0770 O.2    44  ASN44      -0.2867
     14  CB         5.9070    5.1570   26.3610 C.3    44  ASN44       0.1155
     15  CG         6.4380    3.7230   26.2390 C.2    44  ASN44       0.2627
     16  OD1        5.8630    3.0390   25.3890 O.2    44  ASN44      -0.2716
     17  ND2        7.4040    3.2670   27.0270 N.am   44  ASN44      -0.0877
     18  N          5.0300    0.8030   29.9850 N.3    46  ASN46      -0.1240
     19  CA         6.0470   -0.2660   29.9780 C.3    46  ASN46       0.1653
     20  C          5.3300   -1.4680   30.6170 C.2    46  ASN46       0.2266
     21  O          5.2980   -1.5790   31.8780 O.2    46  ASN46      -0.2867
     22  CB         7.2740    0.1330   30.7890 C.3    46  ASN46       0.1155
     23  CG         7.8600    1.4070   30.1990 C.2    46  ASN46       0.2627
     24  OD1        8.2930    1.3760   29.0090 O.2    46  ASN46      -0.2716
     25  ND2        7.8030    2.5000   30.9210 N.am   46  ASN46      -0.0877
     26  N          7.0810   -3.7090   33.4130 N.3    49  ASP49      -0.1239
     27  CA         7.2660   -3.3610   34.8400 C.3    49  ASP49       0.1674
     28  C          6.1380   -2.4920   35.4070 C.2    49  ASP49       0.2266
     29  O          6.2620   -2.0740   36.5430 O.2    49  ASP49      -0.2867
     30  CB         8.6560   -2.7790   35.1140 C.3    49  ASP49       0.1410
     31  CG         8.7090   -1.2850   34.8480 C.2    49  ASP49       0.3668
     32  OD1        7.9500   -0.7800   34.0540 O.co2  49  ASP49      -0.2456
     33  OD2        9.4630   -0.5210   35.4860 O.co2  49  ASP49      -0.2456
     34  N          5.9170    6.2330   31.0730 N.3    53  ASP53      -0.1239
     35  CA         6.8200    7.3820   30.7450 C.3    53  ASP53       0.1674
     36  C          5.8870    8.5360   30.2980 C.2    53  ASP53       0.2266
     37  O          4.9790    8.3030   29.4680 O.2    53  ASP53      -0.2867
     38  CB         7.8210    7.0790   29.6340 C.3    53  ASP53       0.1410
     39  CG         8.6650    5.8210   29.9570 C.2    53  ASP53       0.3668
     40  OD1        9.1060    5.7180   31.0850 O.co2  53  ASP53      -0.2456
     41  OD2        8.8390    5.0450   29.0050 O.co2  53  ASP53      -0.2456
     42  N          9.6440   12.0830   28.4550 N.3    58  GLN58      -0.1231
     43  CA         9.3760   10.6650   28.7870 C.3    58  GLN58       0.1698
     44  C          9.9430   10.2720   30.1530 C.2    58  GLN58       0.2592
     45  O         10.6730    9.2630   30.3070 O.2    58  GLN58      -0.2718
     46  CB         9.8720    9.7310   27.6650 C.3    58  GLN58       0.0381
     47  CG         9.0520    9.8880   26.3940 C.3    58  GLN58       0.0905
     48  CD         7.6390    9.3580   26.5490 C.2    58  GLN58       0.2608
     49  OE1        7.4530    8.1370   26.3840 O.2    58  GLN58      -0.2717
     50  NE2        6.6660   10.1980   26.8560 N.am   58  GLN58      -0.0878
     51  N          9.5450   11.0150   31.1530 N.am   59  ILE59      -0.1966
     52  CA         9.9860   10.7900   32.5540 C.3    59  ILE59       0.1727
     53  C          9.1490    9.6540   33.1560 C.2    59  ILE59       0.2616
     54  O          7.9090    9.6600   33.0530 O.2    59  ILE59      -0.2715
     55  CB         9.8840   12.1370   33.3390 C.3    59  ILE59       0.0290
     56  CG1       11.0370   13.0560   32.8210 C.3    59  ILE59       0.0022
     57  CG2       10.0070   11.8960   34.8650 C.3    59  ILE59       0.0023
     58  CD1       10.9650   14.5400   33.2670 C.3    59  ILE59       0.0001
     59  N          9.8400    8.7280   33.7930 N.am   60  ASN60      -0.1972
     60  CA         9.2100    7.5320   34.3260 C.3    60  ASN60       0.1688
     61  C          8.6260    7.6500   35.7220 C.2    60  ASN60       0.2292
     62  O          9.2090    8.1860   36.6620 O.2    60  ASN60      -0.2864
     63  CB        10.2910    6.4170   34.2570 C.3    60  ASN60       0.1181
     64  CG         9.7170    5.0330   34.5460 C.2    60  ASN60       0.2629
     65  OD1        9.7660    4.6050   35.7080 O.2    60  ASN60      -0.2716
     66  ND2        9.1460    4.3840   33.5440 N.am   60  ASN60      -0.0877
     67  N         10.0740    6.5250   39.5490 N.3    63  TYR63      -0.1227
     68  CA        10.8700    7.3550   40.4280 C.3    63  TYR63       0.1736
     69  C         10.5650    8.8150   40.5410 C.2    63  TYR63       0.2595
     70  O         10.8680    9.4690   41.5450 O.2    63  TYR63      -0.2718
     71  CB        12.3690    7.3330   39.8390 C.3    63  TYR63       0.0548
     72  CG        12.9050    5.9150   39.7080 C.ar   63  TYR63      -0.0200
     73  CD1       13.3300    5.2490   40.8410 C.ar   63  TYR63      -0.0009
     74  CD2       12.9200    5.2500   38.4880 C.ar   63  TYR63      -0.0009
     75  CE1       13.7960    3.9290   40.7570 C.ar   63  TYR63       0.0417
     76  CE2       13.3610    3.9230   38.3750 C.ar   63  TYR63       0.0417
     77  CZ        13.7940    3.2990   39.5300 C.ar   63  TYR63       0.1957
     78  OH        14.2600    2.0040   39.5050 O.3    63  TYR63      -0.2866
     79  N          9.9800    9.3640   39.4500 N.am   64  TRP64      -0.1976
     80  CA         9.8730   10.8290   39.3740 C.3    64  TRP64       0.1640
     81  C          8.5620   11.5100   39.5420 C.2    64  TRP64       0.2290
     82  O          8.5820   12.7090   39.9120 O.2    64  TRP64      -0.2864
     83  CB        10.5330   11.2500   38.0200 C.3    64  TRP64       0.0576
     84  CG        11.9100   10.6700   37.8150 C.ar   64  TRP64       0.0006
     85  CD1       12.2780    9.7200   36.9220 C.ar   64  TRP64       0.0946
     86  CD2       13.0960   10.9790   38.5870 C.ar   64  TRP64       0.0152
     87  NE1       13.5990    9.3690   37.0860 N.ar   64  TRP64      -0.2442
     88  CE2       14.1160   10.1600   38.0780 C.ar   64  TRP64       0.0810
     89  CE3       13.3720   11.8900   39.5990 C.ar   64  TRP64       0.0012
     90  CZ2       15.4460   10.2010   38.5810 C.ar   64  TRP64       0.0191
     91  CZ3       14.6940   11.9320   40.0840 C.ar   64  TRP64       0.0001
     92  CH2       15.7140   11.1080   39.5970 C.ar   64  TRP64       0.0015
     93  N          8.2410    5.9300   43.7660 N.3    74  VAL74      -0.1245
     94  CA         8.4670    7.1400   44.5580 C.3    74  VAL74       0.1561
     95  C          8.1340    8.3340   43.6340 C.2    74  VAL74       0.2260
     96  O          7.8640    8.0860   42.4600 O.2    74  VAL74      -0.2867
     97  CB         9.8370    7.2460   45.2460 C.3    74  VAL74       0.0252
     98  CG1        9.8760    6.1070   46.2640 C.3    74  VAL74       0.0019
     99  CG2       10.9730    7.1330   44.2650 C.3    74  VAL74       0.0019
    100  N         10.0140   11.6800   43.2390 N.3    76  ALA76      -0.1245
    101  CA        11.0710   12.6310   43.5720 C.3    76  ALA76       0.1562
    102  C         10.8510   14.0360   43.0680 C.2    76  ALA76       0.2260
    103  O         11.4410   14.9630   43.6830 O.2    76  ALA76      -0.2867
    104  CB        12.4090   12.0080   43.1820 C.3    76  ALA76       0.0290
    105  N         15.6300   17.9890   38.1740 N.3    98  ARG98      -0.1231
    106  CA        15.7760   17.0920   39.3600 C.3    98  ARG98       0.1694
    107  C         16.3940   15.7710   38.9510 C.2    98  ARG98       0.2591
    108  O         17.3100   15.2420   39.6270 O.2    98  ARG98      -0.2718
    109  CB        14.4010   16.8700   40.0230 C.3    98  ARG98       0.0321
    110  CG        14.4300   15.7350   41.0700 C.3    98  ARG98       0.0489
    111  CD        15.2780   16.1550   42.2670 C.3    98  ARG98       0.2205
    112  NE        15.4030   15.0490   43.2230 N.pl3  98  ARG98      -0.0865
    113  CZ        16.2580   14.0400   43.1600 C.cat  98  ARG98       0.5346
    114  NH1       17.1860   13.9360   42.1830 N.pl3  98  ARG98       0.1354
    115  NH2       16.2940   13.0900   44.1190 N.pl3  98  ARG98       0.1354
    116  N         15.9350   15.2050   37.8290 N.am   99  VAL99      -0.1980
    117  CA        16.4780   13.9010   37.3710 C.3    99  VAL99       0.1595
    118  C         18.0030   13.9580   37.2760 C.2    99  VAL99       0.2287
    119  O         18.6920   13.0480   37.7650 O.2    99  VAL99      -0.2864
    120  CB        15.8770   13.4710   36.0040 C.3    99  VAL99       0.0276
    121  CG1       16.5890   12.2350   35.4040 C.3    99  VAL99       0.0022
    122  CG2       14.3520   13.2710   36.1030 C.3    99  VAL99       0.0022
    123  N         20.7100   13.6060   40.1730 N.3   102  ASP102     -0.1225
    124  CA        21.1570   12.2730   40.6930 C.3   102  ASP102      0.1790
    125  C         22.4520   11.9190   39.9460 C.2   102  ASP102      0.2440
    126  O         22.7670   12.5020   38.9080 O.2   102  ASP102     -0.2733
    127  CB        20.0930   11.2070   40.5020 C.3   102  ASP102      0.1423
    128  CG        19.1540   11.1050   41.7210 C.2   102  ASP102      0.3668
    129  OD1       19.2000   11.9740   42.5880 O.co2 102  ASP102     -0.2456
    130  OD2       18.3820   10.1480   41.7160 O.co2 102  ASP102     -0.2456
    131  N         23.2200   10.9750   40.4690 N.am  103  PRO103     -0.2718
    132  CA        24.5320   10.6440   39.8960 C.3   103  PRO103      0.1535
    133  C         24.6500   10.3050   38.4450 C.2   103  PRO103      0.2598
    134  O         25.6560   10.7130   37.7940 O.2   103  PRO103     -0.2715
    135  CB        25.0590    9.4980   40.7790 C.3   103  PRO103      0.0310
    136  CG        24.2920    9.6100   42.0610 C.3   103  PRO103      0.0237
    137  CD        22.9700   10.2700   41.7400 C.3   103  PRO103      0.0939
    138  N         23.6990    9.5890   37.8670 N.am  104  GLN104     -0.1978
    139  CA        23.7760    9.2340   36.4430 C.3   104  GLN104      0.1601
    140  C         23.6630   10.4610   35.5470 C.2   104  GLN104      0.2287
    141  O         24.0840   10.3680   34.3660 O.2   104  GLN104     -0.2864
    142  CB        22.6040    8.3220   36.0170 C.3   104  GLN104      0.0394
    143  CG        22.6420    6.9340   36.5860 C.3   104  GLN104      0.0908
    144  CD        21.5700    6.1210   35.8300 C.2   104  GLN104      0.2608
    145  OE1       20.3530    6.2420   36.0330 O.2   104  GLN104     -0.2717
    146  NE2       22.1160    5.3170   34.9320 N.am  104  GLN104     -0.0878
    147  N         20.4600    8.9430   32.6890 N.3   108  ALA108     -0.1231
    148  CA        19.2140    8.4090   33.2240 C.3   108  ALA108      0.1694
    149  C         18.2840    8.0000   32.0720 C.2   108  ALA108      0.2592
    150  O         17.3780    7.1810   32.2980 O.2   108  ALA108     -0.2718
    151  CB        18.4730    9.4350   34.0650 C.3   108  ALA108      0.0304
    152  N         18.5130    8.5840   30.9120 N.am  109  TRP109     -0.1962
    153  CA        17.7080    8.2570   29.7140 C.3   109  TRP109      0.1771
    154  C         18.5110    7.3510   28.8160 C.2   109  TRP109      0.2619
    155  O         19.5320    7.8150   28.2600 O.2   109  TRP109     -0.2715
    156  CB        17.3090    9.5410   28.9980 C.3   109  TRP109      0.0590
    157  CG        16.2380   10.4060   29.6060 C.ar  109  TRP109      0.0006
    158  CD1       14.8680   10.2920   29.4270 C.ar  109  TRP109      0.0946
    159  CD2       16.4380   11.5040   30.5070 C.ar  109  TRP109      0.0152
    160  NE1       14.2390   11.2940   30.1330 N.ar  109  TRP109     -0.2442
    161  CE2       15.1660   12.0500   30.8230 C.ar  109  TRP109      0.0810
    162  CE3       17.5880   12.0860   31.0300 C.ar  109  TRP109      0.0012
    163  CZ2       15.0190   13.1580   31.6410 C.ar  109  TRP109      0.0191
    164  CZ3       17.4530   13.1850   31.8570 C.ar  109  TRP109      0.0001
    165  CH2       16.1780   13.7150   32.1640 C.ar  109  TRP109      0.0015
    166  N         18.1140    6.0960   28.6000 N.am  110  VAL110     -0.1977
    167  CA        18.9440    5.2390   27.7120 C.3   110  VAL110      0.1596
    168  C         18.9000    5.7430   26.2850 C.2   110  VAL110      0.2287
    169  O         19.9190    5.5810   25.5550 O.2   110  VAL110     -0.2864
    170  CB        18.5900    3.7560   27.9490 C.3   110  VAL110      0.0276
    171  CG1       17.1140    3.5060   27.7820 C.3   110  VAL110      0.0022
    172  CG2       19.4300    2.8530   27.0280 C.3   110  VAL110      0.0022
@<TRIPOS>BOND
     1     1     2    1
     2     3     4    2
     3     3     2    1
     4     2     5    1
     5     5     6    1
     6    16    15    2
     7   169   168    2
     8     6     7    1
     9     8     7   ar
    10     7     9   ar
    11    15    14    1
    12    15    17   am
    13   168   167    1
    14    14    11    1
    15    49    48    2
    16    47    48    1
    17    47    46    1
    18    48    50   am
    19    11    10    1
    20    11    12    1
    21   172   170    1
    22    46    43    1
    23   167   170    1
    24   167   166    1
    25   171   170    1
    26    12    13    2
    27   155   154    2
    28    42    43    1
    29   166   154   am
    30    43    44    1
    31   154   153    1
    32   156   157    1
    33   156   153    1
    34    41    39   ar
    35    24    23    2
    36   158   157   ar
    37   158   160   ar
    38    37    36    2
    39   157   159   ar
    40    38    39    1
    41    38    35    1
    42   153   152    1
    43    39    40   ar
    44    19    18    1
    45    19    20    1
    46    19    22    1
    47   160   161   ar
    48    44    45    2
    49    44    51   am
    50    23    22    1
    51    23    25   am
    52    36    35    1
    53   159   161   ar
    54   159   162   ar
    55    20    21    2
    56    35    34    1
    57   161   163   ar
    58   152   149   am
    59   162   164   ar
    60    51    52    1
    61   163   165   ar
    62   164   165   ar
    63   149   150    2
    64   149   148    1
    65    52    53    1
    66    52    55    1
    67   147   148    1
    68    56    58    1
    69    56    55    1
    70    54    53    2
    71    53    59   am
    72   148   151    1
    73    55    57    1
    74    26    27    1
    75    66    64   am
    76    59    60    1
    77    32    31   ar
    78    63    60    1
    79    63    64    1
    80    60    61    1
    81   141   140    2
    82    64    65    2
    83    27    30    1
    84    27    28    1
    85    31    30    1
    86    31    33   ar
    87   146   144   am
    88   121   120    1
    89    28    29    2
    90   140   139    1
    91    61    62    2
    92   144   145    2
    93   144   143    1
    94   120   122    1
    95   120   117    1
    96   142   139    1
    97   142   143    1
    98   139   138    1
    99    85    87   ar
   100    85    84   ar
   101    87    88   ar
   102   118   117    1
   103   118   119    2
   104   117   116    1
   105   134   133    2
   106    84    83    1
   107    84    86   ar
   108   116   107   am
   109   138   133   am
   110    83    80    1
   111    88    90   ar
   112    88    86   ar
   113   105   106    1
   114    76    74   ar
   115    76    77   ar
   116   133   132    1
   117    74    72   ar
   118    90    92   ar
   119    86    89   ar
   120   126   125    2
   121   107   106    1
   122   107   108    2
   123   106   109    1
   124    80    79    1
   125    80    81    1
   126    79    69   am
   127    78    77    1
   128    77    75   ar
   129    81    82    2
   130    67    68    1
   131    92    91   ar
   132    89    91   ar
   133    72    71    1
   134    72    73   ar
   135    71    68    1
   136   132   131    1
   137   132   135    1
   138   125   131   am
   139   125   124    1
   140   109   110    1
   141   123   124    1
   142    68    69    1
   143   131   137    1
   144   127   124    1
   145   127   128    1
   146    69    70    2
   147    75    73   ar
   148   135   136    1
   149   110   111    1
   150   130   128   ar
   151   128   129   ar
   152   137   136    1
   153   114   113    1
   154   111   112    1
   155    96    95    2
   156   102   101    1
   157   102   103    2
   158   113   112    2
   159   113   115    1
   160   104   101    1
   161   100   101    1
   162    95    94    1
   163    93    94    1
   164    99    97    1
   165    94    97    1
   166    97    98    1
