@<TRIPOS>MOLECULE
tmp/1lzsA01.pdb
 118 113 0 0 0
SMALL
GASTEIGER

@<TRIPOS>ATOM
      1  N         20.5860   13.7100   -2.5430 N.3    33  LYS33      -0.1231
      2  CA        21.0740   14.3990   -3.7660 C.3    33  LYS33       0.1693
      3  C         22.1910   15.3520   -3.4840 C.2    33  LYS33       0.2592
      4  O         23.2660   15.3890   -4.1460 O.2    33  LYS33      -0.2718
      5  CB        19.8690   15.0620   -4.4660 C.3    33  LYS33       0.0285
      6  CG        20.2210   15.4630   -5.9160 C.3    33  LYS33       0.0035
      7  CD        20.7220   16.8900   -5.9720 C.3    33  LYS33       0.0206
      8  CE        20.7740   17.3780   -7.4320 C.3    33  LYS33       0.1093
      9  NZ        21.6260   18.6180   -7.4140 N.3    33  LYS33      -0.1314
     10  N         22.0500   16.2290   -2.4820 N.am   34  TRP34      -0.1962
     11  CA        23.1120   17.2180   -2.1670 C.3    34  TRP34       0.1771
     12  C         24.2920   16.6760   -1.3900 C.2    34  TRP34       0.2620
     13  O         25.4630   17.1680   -1.5270 O.2    34  TRP34      -0.2715
     14  CB        22.4210   18.4350   -1.5150 C.3    34  TRP34       0.0590
     15  CG        21.5390   19.1230   -2.5130 C.ar   34  TRP34       0.0006
     16  CD1       20.1720   19.0950   -2.6170 C.ar   34  TRP34       0.0946
     17  CD2       22.0080   19.9880   -3.5620 C.ar   34  TRP34       0.0152
     18  NE1       19.7550   19.8970   -3.6660 N.ar   34  TRP34      -0.2442
     19  CE2       20.8720   20.4380   -4.2570 C.ar   34  TRP34       0.0810
     20  CE3       23.2800   20.4150   -3.9430 C.ar   34  TRP34       0.0012
     21  CZ2       20.9540   21.2950   -5.3520 C.ar   34  TRP34       0.0191
     22  CZ3       23.3330   21.2880   -5.0250 C.ar   34  TRP34       0.0001
     23  CH2       22.2260   21.7040   -5.7320 C.ar   34  TRP34       0.0015
     24  N         24.0840   15.6460   -0.5650 N.am   35  GLU35      -0.1963
     25  CA        25.2430   15.0900    0.1300 C.3    35  GLU35       0.1733
     26  C         26.1610   14.3150   -0.8080 C.2    35  GLU35       0.2617
     27  O         27.3540   14.4800   -0.8250 O.2    35  GLU35      -0.2715
     28  CB        24.8100   14.0920    1.2360 C.3    35  GLU35       0.0429
     29  CG        24.1510   14.8060    2.4590 C.3    35  GLU35       0.1163
     30  CD        25.2250   15.5960    3.1860 C.2    35  GLU35       0.3649
     31  OE1       26.4320   15.5900    2.8860 O.co2  35  GLU35      -0.2457
     32  OE2       24.7200   16.3930    3.9880 O.co2  35  GLU35      -0.2457
     33  N         25.5820   13.4600   -1.6640 N.am   36  SER36      -0.1936
     34  CA        26.4440   12.6210   -2.5340 C.3    36  SER36       0.2055
     35  C         26.0730   12.5110   -4.0070 C.2    36  SER36       0.2643
     36  O         26.8100   11.7870   -4.7340 O.2    36  SER36      -0.2714
     37  CB        26.2710   11.2050   -1.9040 C.3    36  SER36       0.2130
     38  OG        24.9740   10.7350   -2.2350 O.3    36  SER36      -0.2179
     39  N         25.0320   13.1540   -4.4160 N.am   37  GLY37      -0.1954
     40  CA        24.5680   13.0250   -5.8440 C.3    37  GLY37       0.1869
     41  C         24.1060   11.5880   -6.0790 C.2    37  GLY37       0.2309
     42  O         24.3820   10.9970   -7.1460 O.2    37  GLY37      -0.2863
     43  N         25.2760    8.8620   -4.8960 N.3    39  ASN39      -0.1240
     44  CA        26.4310    8.0100   -5.1260 C.3    39  ASN39       0.1653
     45  C         26.8780    7.2250   -3.8880 C.2    39  ASN39       0.2266
     46  O         27.3500    7.8800   -2.9720 O.2    39  ASN39      -0.2867
     47  CB        27.5600    8.9010   -5.6840 C.3    39  ASN39       0.1155
     48  CG        28.7990    8.2050   -6.1610 C.2    39  ASN39       0.2627
     49  OD1       29.0280    7.0170   -5.9090 O.2    39  ASN39      -0.2716
     50  ND2       29.6860    8.9720   -6.8000 N.am   39  ASN39      -0.0877
     51  N         30.7590    7.7790   -2.8750 N.3    42  ALA42      -0.1231
     52  CA        31.1690    9.1210   -2.4300 C.3    42  ALA42       0.1694
     53  C         31.8940    9.0480   -1.0900 C.2    42  ALA42       0.2593
     54  O         31.4300    8.4080   -0.1260 O.2    42  ALA42      -0.2718
     55  CB        29.9120    9.9540   -2.2500 C.3    42  ALA42       0.0304
     56  N         33.0080    9.7610   -1.0370 N.am   43  THR43      -0.1939
     57  CA        33.8010    9.9030    0.1860 C.3    43  THR43       0.2028
     58  C         34.2890   11.3630    0.1710 C.2    43  THR43       0.2642
     59  O         34.5500   11.9890   -0.8700 O.2    43  THR43      -0.2714
     60  CB        34.9510    8.8750    0.4260 C.3    43  THR43       0.1808
     61  OG1       35.8400    9.0100   -0.7230 O.3    43  THR43      -0.2208
     62  CG2       34.4980    7.4180    0.5450 C.3    43  THR43       0.0379
     63  N         34.3810   11.8810    1.3770 N.am   44  ASN44      -0.1971
     64  CA        34.8270   13.2700    1.5860 C.3    44  ASN44       0.1688
     65  C         35.7820   13.2390    2.7790 C.2    44  ASN44       0.2292
     66  O         35.3000   12.9180    3.8510 O.2    44  ASN44      -0.2864
     67  CB        33.6120   14.1910    1.8200 C.3    44  ASN44       0.1181
     68  CG        34.1620   15.5410    2.2910 C.2    44  ASN44       0.2629
     69  OD1       34.9810   16.1330    1.5510 O.2    44  ASN44      -0.2716
     70  ND2       33.7750   15.9890    3.4780 N.am   44  ASN44      -0.0877
     71  N         33.6110   11.1870    5.5060 N.3    53  ASP53      -0.1239
     72  CA        32.1480   11.0460    5.3090 C.3    53  ASP53       0.1674
     73  C         31.9700    9.9540    4.2640 C.2    53  ASP53       0.2266
     74  O         32.5840   10.1060    3.1890 O.2    53  ASP53      -0.2867
     75  CB        31.5210   12.3520    4.8450 C.3    53  ASP53       0.1410
     76  CG        31.7400   13.5270    5.7760 C.2    53  ASP53       0.3668
     77  OD1       31.5900   13.3860    7.0010 O.co2  53  ASP53      -0.2456
     78  OD2       32.1090   14.5880    5.2370 O.co2  53  ASP53      -0.2456
     79  N         26.6310   10.2590    3.3050 N.3    58  GLN58      -0.1245
     80  CA        27.8550   10.9200    3.8180 C.3    58  GLN58       0.1566
     81  C         27.9480   10.9000    5.3540 C.2    58  GLN58       0.2260
     82  O         28.0090   11.9680    6.0290 O.2    58  GLN58      -0.2867
     83  CB        27.8840   12.3910    3.3380 C.3    58  GLN58       0.0367
     84  CG        28.1420   12.4360    1.8310 C.3    58  GLN58       0.0905
     85  CD        29.5660   12.0400    1.5070 C.2    58  GLN58       0.2608
     86  OE1       30.4870   12.8280    1.6270 O.2    58  GLN58      -0.2717
     87  NE2       29.7600   10.7650    1.1690 N.am   58  GLN58      -0.0878
     88  N         24.8440   18.6280    6.8480 N.3   110  VAL110     -0.1231
     89  CA        25.1120   19.9980    6.3870 C.3   110  VAL110      0.1692
     90  C         24.4930   20.3490    5.0470 C.2   110  VAL110      0.2591
     91  O         23.8960   21.4530    4.9240 O.2   110  VAL110     -0.2718
     92  CB        26.6250   20.2460    6.5000 C.3   110  VAL110      0.0266
     93  CG1       27.0780   21.4610    5.7530 C.3   110  VAL110      0.0020
     94  CG2       26.9760   20.2590    8.0010 C.3   110  VAL110      0.0020
     95  N         24.5990   19.4380    4.0820 N.am  111  ALA111     -0.1980
     96  CA        24.0380   19.7390    2.7430 C.3   111  ALA111      0.1597
     97  C         22.5550   19.9240    2.8690 C.2   111  ALA111      0.2287
     98  O         21.9020   20.7510    2.1840 O.2   111  ALA111     -0.2864
     99  CB        24.4580   18.6630    1.7600 C.3   111  ALA111      0.0319
    100  N         21.8060   23.4720    4.1350 N.3   114  ASN114     -0.1225
    101  CA        22.1330   24.4540    3.1270 C.3   114  ASN114      0.1785
    102  C         21.2550   24.4050    1.9060 C.2   114  ASN114      0.2597
    103  O         20.8980   25.5090    1.4230 O.2   114  ASN114     -0.2718
    104  CB        23.6420   24.3490    2.7620 C.3   114  ASN114      0.1169
    105  CG        24.5200   24.8410    3.8820 C.2   114  ASN114      0.2627
    106  OD1       24.1300   25.6970    4.6790 O.2   114  ASN114     -0.2716
    107  ND2       25.7400   24.3100    3.9850 N.am  114  ASN114     -0.0877
    108  N         20.8740   23.2270    1.4340 N.am  115  ARG115     -0.1979
    109  CA        20.0960   23.1910    0.1730 C.3   115  ARG115      0.1597
    110  C         18.6910   22.7070    0.2410 C.2   115  ARG115      0.2287
    111  O         17.9680   22.8310   -0.7950 O.2   115  ARG115     -0.2864
    112  CB        20.8680   22.2190   -0.7850 C.3   115  ARG115      0.0334
    113  CG        22.3320   22.5770   -0.9720 C.3   115  ARG115      0.0492
    114  CD        22.4410   23.5380   -2.1410 C.3   115  ARG115      0.2205
    115  NE        22.1920   24.9410   -1.7230 N.pl3 115  ARG115     -0.0865
    116  CZ        23.2530   25.6030   -1.1770 C.cat 115  ARG115      0.5346
    117  NH1       24.4350   25.0520   -1.0000 N.pl3 115  ARG115      0.1354
    118  NH2       23.1540   26.8810   -0.8330 N.pl3 115  ARG115      0.1354
@<TRIPOS>BOND
     1     8     9    1
     2     8     7    1
     3    42    41    2
     4    50    48   am
     5    48    49    2
     6    48    47    1
     7    41    40    1
     8     7     6    1
     9     6     5    1
    10    40    39    1
    11    23    21   ar
    12    23    22   ar
    13    47    44    1
    14    21    19   ar
    15    44    43    1
    16    44    45    1
    17    22    20   ar
    18    36    35    2
    19     5     2    1
    20    39    35   am
    21    19    18   ar
    22    19    17   ar
    23     4     3    2
    24    35    34    1
    25    20    17   ar
    26    45    46    2
    27     2     3    1
    28     2     1    1
    29    18    16   ar
    30    17    15   ar
    31     3    10   am
    32    51    52    1
    33    16    15   ar
    34    34    37    1
    35    34    33    1
    36    15    14    1
    37    10    11    1
    38    52    55    1
    39    52    53    1
    40    38    37    1
    41    11    14    1
    42    11    12    1
    43   114   115    1
    44   114   113    1
    45   115   116    2
    46    33    26   am
    47    13    12    2
    48    12    24   am
    49   116   117    1
    50   116   118    1
    51    53    56   am
    52    53    54    2
    53    56    57    1
    54   113   112    1
    55    59    58    2
    56    27    26    2
    57    26    25    1
    58   111   110    2
    59   112   109    1
    60    61    60    1
    61    24    25    1
    62    25    28    1
    63    58    57    1
    64    58    63   am
    65   109   110    1
    66   109   108    1
    67    57    60    1
    68    60    62    1
    69    87    85   am
    70    28    29    1
    71    63    64    1
    72   103   102    2
    73   108   102   am
    74    85    86    2
    75    85    84    1
    76    69    68    2
    77    64    67    1
    78    64    65    1
    79    99    96    1
    80    67    68    1
    81    84    83    1
    82   102   101    1
    83    98    97    2
    84    68    70   am
    85    29    30    1
    86    96    97    1
    87    96    95    1
    88   104   101    1
    89   104   105    1
    90    65    66    2
    91    31    30   ar
    92   101   100    1
    93    30    32   ar
    94    74    73    2
    95    79    80    1
    96    83    80    1
    97    80    81    1
    98   105   107   am
    99   105   106    2
   100    95    90   am
   101    73    72    1
   102    75    72    1
   103    75    76    1
   104    91    90    2
   105    90    89    1
   106    78    76   ar
   107    72    71    1
   108    81    82    2
   109    93    92    1
   110    76    77   ar
   111    89    92    1
   112    89    88    1
   113    92    94    1
