@<TRIPOS>MOLECULE
tmp/1lzxB03.pdb
 160 158 0 0 0
SMALL
GASTEIGER

@<TRIPOS>ATOM
      1  N          7.4750    5.4870   53.8980 N.3   108  CYS108     -0.1235
      2  CA         7.1760    4.2530   54.6250 C.3   108  CYS108      0.1677
      3  C          6.0880    3.4390   53.9340 C.2   108  CYS108      0.2270
      4  O          4.9630    3.9200   53.7380 O.2   108  CYS108     -0.2867
      5  CB         6.7350    4.5510   56.0670 C.3   108  CYS108      0.0956
      6  SG         6.4110    3.0820   57.1290 S.3   108  CYS108     -0.0801
      7  N         20.3900    3.8250   64.5350 N.3   171  GLN171     -0.1245
      8  CA        19.3870    2.8220   64.8970 C.3   171  GLN171      0.1566
      9  C         19.7910    2.3240   66.2990 C.2   171  GLN171      0.2260
     10  O         20.9860    2.2190   66.6050 O.2   171  GLN171     -0.2867
     11  CB        19.3630    1.6570   63.9140 C.3   171  GLN171      0.0367
     12  CG        18.7370    1.9340   62.5570 C.3   171  GLN171      0.0905
     13  CD        18.6850    0.6850   61.6970 C.2   171  GLN171      0.2608
     14  OE1       18.4530   -0.4150   62.1910 O.2   171  GLN171     -0.2717
     15  NE2       18.8760    0.8580   60.4080 N.am  171  GLN171     -0.0878
     16  N         22.4260   -1.8790   65.9180 N.3   174  ARG174     -0.1245
     17  CA        23.1150   -1.9130   64.6370 C.3   174  ARG174      0.1563
     18  C         24.5200   -2.4860   64.8520 C.2   174  ARG174      0.2260
     19  O         25.0550   -2.4230   65.9590 O.2   174  ARG174     -0.2867
     20  CB        23.1960   -0.4920   64.0550 C.3   174  ARG174      0.0307
     21  CG        22.5720   -0.3790   62.6840 C.3   174  ARG174      0.0489
     22  CD        22.9270    0.9110   61.9700 C.3   174  ARG174      0.2205
     23  NE        22.4110    0.8550   60.6110 N.pl3 174  ARG174     -0.0865
     24  CZ        22.5630    1.8000   59.6950 C.cat 174  ARG174      0.5346
     25  NH1       23.2250    2.9100   59.9720 N.pl3 174  ARG174      0.1354
     26  NH2       22.0330    1.6260   58.4930 N.pl3 174  ARG174      0.1354
     27  N         21.2780  -11.3900   61.6390 N.3   254  TRP254     -0.1227
     28  CA        20.8440   -9.9920   61.7040 C.3   254  TRP254      0.1737
     29  C         19.9490   -9.8000   62.9150 C.2   254  TRP254      0.2595
     30  O         19.4150  -10.7740   63.4530 O.2   254  TRP254     -0.2718
     31  CB        20.0890   -9.5950   60.4270 C.3   254  TRP254      0.0564
     32  CG        20.1070   -8.1090   60.1670 C.ar  254  TRP254      0.0003
     33  CD1       19.0740   -7.2240   60.3420 C.ar  254  TRP254      0.0946
     34  CD2       21.2220   -7.3390   59.7080 C.ar  254  TRP254      0.0152
     35  NE1       19.4810   -5.9530   60.0190 N.ar  254  TRP254     -0.2442
     36  CE2       20.7990   -5.9930   59.6280 C.ar  254  TRP254      0.0810
     37  CE3       22.5440   -7.6540   59.3560 C.ar  254  TRP254      0.0012
     38  CZ2       21.6450   -4.9600   59.2100 C.ar  254  TRP254      0.0191
     39  CZ3       23.3880   -6.6290   58.9380 C.ar  254  TRP254      0.0001
     40  CH2       22.9340   -5.2950   58.8700 C.ar  254  TRP254      0.0015
     41  N         19.7940   -8.5560   63.3540 N.am  255  TYR255     -0.1976
     42  CA        18.9430   -8.2730   64.5020 C.3   255  TYR255      0.1639
     43  C         17.4940   -8.2070   64.0060 C.2   255  TYR255      0.2290
     44  O         17.2390   -7.8750   62.8410 O.2   255  TYR255     -0.2864
     45  CB        19.3730   -6.9630   65.1660 C.3   255  TYR255      0.0560
     46  CG        19.5340   -5.8030   64.2080 C.ar  255  TYR255     -0.0198
     47  CD1       18.5000   -4.8920   64.0100 C.ar  255  TYR255     -0.0009
     48  CD2       20.7410   -5.5900   63.5310 C.ar  255  TYR255     -0.0009
     49  CE1       18.6560   -3.7810   63.1710 C.ar  255  TYR255      0.0417
     50  CE2       20.9160   -4.4910   62.6860 C.ar  255  TYR255      0.0417
     51  CZ        19.8650   -3.5960   62.5200 C.ar  255  TYR255      0.1957
     52  OH        20.0330   -2.4980   61.7140 O.3   255  TYR255     -0.2866
     53  N         14.1280   -3.3270   63.8560 N.3   258  PRO258     -0.2116
     54  CA        14.6120   -2.1460   63.1300 C.3   258  PRO258      0.1372
     55  C         14.1380   -0.8940   63.8900 C.2   258  PRO258      0.2244
     56  O         12.9350   -0.6270   63.9580 O.2   258  PRO258     -0.2868
     57  CB        13.9550   -2.2930   61.7610 C.3   258  PRO258      0.0268
     58  CG        12.6290   -2.9240   62.0800 C.3   258  PRO258      0.0207
     59  CD        12.9550   -3.9300   63.1860 C.3   258  PRO258      0.0892
     60  N         14.8620    3.0740   63.9130 N.3   260  VAL260     -0.1245
     61  CA        15.4430    4.3560   63.5070 C.3   260  VAL260      0.1561
     62  C         15.4620    5.2930   64.7120 C.2   260  VAL260      0.2260
     63  O         14.4380    5.5050   65.3490 O.2   260  VAL260     -0.2867
     64  CB        14.6250    4.9690   62.3620 C.3   260  VAL260      0.0252
     65  CG1       15.0590    6.4040   62.1000 C.3   260  VAL260      0.0019
     66  CG2       14.7890    4.1110   61.1050 C.3   260  VAL260      0.0019
     67  N         11.9660    5.0740   66.9520 N.3   277  PHE277     -0.1227
     68  CA        10.7510    4.3330   66.6620 C.3   277  PHE277      0.1736
     69  C         11.0890    2.9960   65.9890 C.2   277  PHE277      0.2596
     70  O         12.1120    2.8630   65.3130 O.2   277  PHE277     -0.2718
     71  CB         9.8270    5.1740   65.7740 C.3   277  PHE277      0.0547
     72  CG        10.4310    5.5610   64.4460 C.ar  277  PHE277     -0.0202
     73  CD1       10.4090    4.6810   63.3730 C.ar  277  PHE277     -0.0042
     74  CD2       11.0080    6.8240   64.2630 C.ar  277  PHE277     -0.0042
     75  CE1       10.9480    5.0480   62.1300 C.ar  277  PHE277     -0.0003
     76  CE2       11.5470    7.1930   63.0220 C.ar  277  PHE277     -0.0003
     77  CZ        11.5140    6.3030   61.9590 C.ar  277  PHE277     -0.0000
     78  N         10.2210    2.0100   66.1760 N.am  278  SER278     -0.1938
     79  CA        10.4360    0.6960   65.5840 C.3   278  SER278      0.2055
     80  C          9.1420    0.0060   65.1770 C.2   278  SER278      0.2644
     81  O          8.0940    0.2320   65.7720 O.2   278  SER278     -0.2714
     82  CB        11.1880   -0.2040   66.5630 C.3   278  SER278      0.2130
     83  OG        10.4570   -0.3540   67.7670 O.3   278  SER278     -0.2179
     84  N          9.2400   -0.8260   64.1440 N.am  279  GLY279     -0.1939
     85  CA         8.1160   -1.6080   63.6700 C.3   279  GLY279      0.2014
     86  C          8.7270   -2.9840   63.4830 C.2   279  GLY279      0.2639
     87  O          9.2120   -3.5770   64.4490 O.2   279  GLY279     -0.2714
     88  N          8.7100   -3.4880   62.2500 N.am  280  TRP280     -0.1959
     89  CA         9.3290   -4.7740   61.9330 C.3   280  TRP280      0.1771
     90  C          9.8490   -4.7170   60.4950 C.2   280  TRP280      0.2620
     91  O          9.3980   -3.9060   59.6850 O.2   280  TRP280     -0.2715
     92  CB         8.3590   -5.9520   62.1430 C.3   280  TRP280      0.0590
     93  CG         7.0330   -5.8520   61.4590 C.ar  280  TRP280      0.0006
     94  CD1        6.7620   -6.0900   60.1380 C.ar  280  TRP280      0.0946
     95  CD2        5.7820   -5.5180   62.0720 C.ar  280  TRP280      0.0152
     96  NE1        5.4130   -5.9280   59.8970 N.ar  280  TRP280     -0.2442
     97  CE2        4.7920   -5.5770   61.0660 C.ar  280  TRP280      0.0810
     98  CE3        5.4030   -5.1790   63.3770 C.ar  280  TRP280      0.0012
     99  CZ2        3.4350   -5.3050   61.3290 C.ar  280  TRP280      0.0191
    100  CZ3        4.0640   -4.9110   63.6380 C.ar  280  TRP280      0.0001
    101  CH2        3.0950   -4.9770   62.6170 C.ar  280  TRP280      0.0015
    102  N         10.8140   -5.5690   60.1880 N.am  281  TYR281     -0.1960
    103  CA        11.4400   -5.5650   58.8720 C.3   281  TYR281      0.1771
    104  C         10.6620   -6.1010   57.7000 C.2   281  TYR281      0.2619
    105  O          9.8370   -7.0070   57.8360 O.2   281  TYR281     -0.2715
    106  CB        12.7390   -6.3670   58.9070 C.3   281  TYR281      0.0574
    107  CG        13.9580   -5.6350   59.3710 C.ar  281  TYR281     -0.0198
    108  CD1       14.5470   -5.9220   60.6040 C.ar  281  TYR281     -0.0009
    109  CD2       14.5830   -4.7130   58.5420 C.ar  281  TYR281     -0.0009
    110  CE1       15.7360   -5.3130   60.9900 C.ar  281  TYR281      0.0417
    111  CE2       15.7650   -4.0960   58.9100 C.ar  281  TYR281      0.0417
    112  CZ        16.3320   -4.4060   60.1310 C.ar  281  TYR281      0.1957
    113  OH        17.5200   -3.8060   60.4670 O.3   281  TYR281     -0.2866
    114  N         10.9430   -5.5240   56.5370 N.am  282  MET282     -0.1977
    115  CA        10.4020   -6.0370   55.2960 C.3   282  MET282      0.1605
    116  C         11.6810   -6.7600   54.8680 C.2   282  MET282      0.2287
    117  O         12.7770   -6.1930   54.9710 O.2   282  MET282     -0.2864
    118  CB        10.0570   -4.9270   54.2960 C.3   282  MET282      0.0413
    119  CG         9.6380   -5.4850   52.9280 C.3   282  MET282      0.0598
    120  SD         8.7950   -4.3160   51.8210 S.3   282  MET282     -0.1393
    121  CE        10.2150   -3.3730   51.2100 C.3   282  MET282      0.0692
    122  N         14.9170   -5.2210   53.0320 N.3   285  GLU285     -0.1245
    123  CA        15.7520   -4.2410   53.7270 C.3   285  GLU285      0.1567
    124  C         17.0800   -4.8930   54.1220 C.2   285  GLU285      0.2260
    125  O         18.1450   -4.2940   53.9930 O.2   285  GLU285     -0.2867
    126  CB        15.0510   -3.7160   54.9870 C.3   285  GLU285      0.0388
    127  CG        13.7240   -2.9950   54.7390 C.3   285  GLU285      0.1160
    128  CD        13.1510   -2.4110   56.0220 C.2   285  GLU285      0.3649
    129  OE1       13.6360   -1.3480   56.4700 O.co2 285  GLU285     -0.2457
    130  OE2       12.2290   -3.0290   56.5900 O.co2 285  GLU285     -0.2457
    131  N         19.4020   -4.7460   50.4740 N.3   289  ARG289     -0.1231
    132  CA        20.2250   -3.6080   50.8520 C.3   289  ARG289      0.1694
    133  C         21.3680   -3.8450   51.8510 C.2   289  ARG289      0.2592
    134  O         22.5280   -3.6160   51.5220 O.2   289  ARG289     -0.2718
    135  CB        19.3280   -2.4700   51.3680 C.3   289  ARG289      0.0321
    136  CG        18.1820   -2.0670   50.4150 C.3   289  ARG289      0.0489
    137  CD        18.6880   -1.6660   49.0320 C.3   289  ARG289      0.2205
    138  NE        19.7560   -0.6650   49.1040 N.pl3 289  ARG289     -0.0865
    139  CZ        19.5540    0.6040   49.4410 C.cat 289  ARG289      0.5346
    140  NH1       18.3200    1.0170   49.7260 N.pl3 289  ARG289      0.1354
    141  NH2       20.5740    1.4550   49.5050 N.pl3 289  ARG289      0.1354
    142  N         21.0550   -4.2980   53.0600 N.am  290  ASP290     -0.1974
    143  CA        22.1030   -4.4760   54.0620 C.3   290  ASP290      0.1709
    144  C         23.1450   -5.5480   53.7180 C.2   290  ASP290      0.2293
    145  O         24.3300   -5.4060   54.0380 O.2   290  ASP290     -0.2864
    146  CB        21.4820   -4.7630   55.4360 C.3   290  ASP290      0.1436
    147  CG        20.4270   -3.7360   55.8310 C.2   290  ASP290      0.3671
    148  OD1       20.4850   -2.5890   55.3430 O.co2 290  ASP290     -0.2456
    149  OD2       19.5470   -4.0770   56.6470 O.co2 290  ASP290     -0.2456
    150  N         27.7480   -2.0730   51.6960 N.3   296  ARG296     -0.1245
    151  CA        27.3160   -2.6700   52.9550 C.3   296  ARG296      0.1563
    152  C         28.0540   -4.0100   53.0610 C.2   296  ARG296      0.2260
    153  O         29.2300   -4.0820   52.7140 O.2   296  ARG296     -0.2867
    154  CB        25.7910   -2.8620   52.9780 C.3   296  ARG296      0.0307
    155  CG        24.9920   -1.5400   52.9510 C.3   296  ARG296      0.0489
    156  CD        25.3120   -0.6290   54.1420 C.3   296  ARG296      0.2205
    157  NE        24.8790   -1.1690   55.4400 N.pl3 296  ARG296     -0.0865
    158  CZ        23.6180   -1.1600   55.8870 C.cat 296  ARG296      0.5346
    159  NH1       22.6440   -0.6410   55.1460 N.pl3 296  ARG296      0.1354
    160  NH2       23.3330   -1.6550   57.0860 N.pl3 296  ARG296      0.1354
@<TRIPOS>BOND
     1   137   138    1
     2   137   136    1
     3   138   139    2
     4   139   141    1
     5   139   140    1
     6   136   135    1
     7   131   132    1
     8   132   135    1
     9   132   133    1
    10   121   120    1
    11   134   133    2
    12   150   151    1
    13   120   119    1
    14   133   142   am
    15   153   152    2
    16   119   118    1
    17   155   154    1
    18   155   156    1
    19   151   154    1
    20   151   152    1
    21   122   123    1
    22   142   143    1
    23   144   145    2
    24   144   143    1
    25   123   124    1
    26   123   126    1
    27     4     3    2
    28     1     2    1
    29     3     2    1
    30   125   124    2
    31   143   146    1
    32   156   157    1
    33   118   115    1
    34     2     5    1
    35   127   126    1
    36   127   128    1
    37   116   117    2
    38   116   115    1
    39   159   158    1
    40   115   114    1
    41   148   147   ar
    42   146   147    1
    43   157   158    2
    44   147   149   ar
    45   158   160    1
    46   128   129   ar
    47   128   130   ar
    48     5     6    1
    49   114   104   am
    50   104   105    2
    51   104   103    1
    52    26    24    1
    53   109   111   ar
    54   109   107   ar
    55    40    39   ar
    56    40    38   ar
    57   103   106    1
    58   103   102    1
    59   106   107    1
    60   111   112   ar
    61    39    37   ar
    62    38    36   ar
    63    37    34   ar
    64   107   108   ar
    65    36    34   ar
    66    36    35   ar
    67    91    90    2
    68    24    25    1
    69    24    23    2
    70    34    32   ar
    71    96    94   ar
    72    96    97   ar
    73    35    33   ar
    74   112   113    1
    75   112   110   ar
    76    94    93   ar
    77    32    33   ar
    78    32    31    1
    79   102    90   am
    80    15    13   am
    81    31    28    1
    82    90    89    1
    83   108   110   ar
    84    23    22    1
    85    97    99   ar
    86    97    95   ar
    87    66    64    1
    88    99   101   ar
    89    93    95   ar
    90    93    92    1
    91    27    28    1
    92    13    14    2
    93    13    12    1
    94    28    29    1
    95    52    51    1
    96    57    58    1
    97    57    54    1
    98    89    92    1
    99    89    88    1
   100    77    75   ar
   101    77    76   ar
   102    22    21    1
   103    95    98   ar
   104    58    59    1
   105    65    64    1
   106    75    73   ar
   107    88    86   am
   108    64    61    1
   109    51    50   ar
   110    51    49   ar
   111    12    11    1
   112   101   100   ar
   113    21    20    1
   114    50    48   ar
   115    44    43    2
   116    29    41   am
   117    29    30    2
   118    76    74   ar
   119    54    53    1
   120    54    55    1
   121    49    47   ar
   122    59    53    1
   123    41    42    1
   124    73    72   ar
   125    98   100   ar
   126    86    85    1
   127    86    87    2
   128    61    60    1
   129    61    62    1
   130    48    46   ar
   131    85    84    1
   132    55    56    2
   133    11     8    1
   134    43    42    1
   135    47    46   ar
   136    20    17    1
   137    84    80   am
   138    46    45    1
   139    74    72   ar
   140    72    71    1
   141    42    45    1
   142     7     8    1
   143    17    18    1
   144    17    16    1
   145    62    63    2
   146    18    19    2
   147     8     9    1
   148    80    79    1
   149    80    81    2
   150    70    69    2
   151    79    78    1
   152    79    82    1
   153    71    68    1
   154    69    78   am
   155    69    68    1
   156     9    10    2
   157    82    83    1
   158    68    67    1
