@<TRIPOS>MOLECULE
tmp/1lzzA02.pdb
 98 98 0 0 0
SMALL
GASTEIGER

@<TRIPOS>ATOM
      1  N         15.4880    7.4050   28.4590 N.3   106  CYS106     -0.1235
      2  CA        16.2660    6.3910   27.7450 C.3   106  CYS106      0.1677
      3  C         17.6110    6.1000   28.3960 C.2   106  CYS106      0.2270
      4  O         18.4570    6.9860   28.5200 O.2   106  CYS106     -0.2867
      5  CB        16.4940    6.8220   26.2910 C.3   106  CYS106      0.0956
      6  SG        17.4800    5.6730   25.2770 S.3   106  CYS106     -0.0801
      7  N          4.5040    0.6850   17.9260 N.3   169  GLN169     -0.1245
      8  CA         5.8600    0.2720   17.5770 C.3   169  GLN169      0.1566
      9  C          5.7170   -0.3170   16.1740 C.2   169  GLN169      0.2260
     10  O          4.6670   -0.8780   15.8470 O.2   169  GLN169     -0.2867
     11  CB         6.3850   -0.8080   18.5220 C.3   169  GLN169      0.0367
     12  CG         6.7230   -0.3420   19.9260 C.3   169  GLN169      0.0905
     13  CD         7.1490   -1.4970   20.8140 C.2   169  GLN169      0.2608
     14  OE1        8.0870   -2.2440   20.4880 O.2   169  GLN169     -0.2717
     15  NE2        6.4590   -1.6600   21.9390 N.am  169  GLN169     -0.0878
     16  N         13.2320   -3.2140   18.2430 N.3   256  PRO256     -0.2102
     17  CA        12.3050   -2.3610   18.9910 C.3   256  PRO256      0.1504
     18  C         12.2560   -1.0180   18.2660 C.2   256  PRO256      0.2576
     19  O         13.2870   -0.3600   18.0880 O.2   256  PRO256     -0.2718
     20  CB        12.9470   -2.2780   20.3750 C.3   256  PRO256      0.0282
     21  CG        14.4230   -2.3550   20.0700 C.3   256  PRO256      0.0208
     22  CD        14.4990   -3.4090   18.9740 C.3   256  PRO256      0.0893
     23  N         11.0690   -0.6120   17.8340 N.am  257  ALA257     -0.1966
     24  CA        10.9510    0.6410   17.1020 C.3   257  ALA257      0.1728
     25  C          9.7100    1.4710   17.4120 C.2   257  ALA257      0.2616
     26  O          8.6540    1.2610   16.8200 O.2   257  ALA257     -0.2715
     27  CB        11.0250    0.3580   15.6200 C.3   257  ALA257      0.0334
     28  N          9.8600    2.4210   18.3310 N.am  258  VAL258     -0.1977
     29  CA         8.7830    3.3160   18.7350 C.3   258  VAL258      0.1596
     30  C          8.3400    4.1530   17.5510 C.2   258  VAL258      0.2287
     31  O          9.1550    4.8270   16.9280 O.2   258  VAL258     -0.2864
     32  CB         9.2580    4.2610   19.8590 C.3   258  VAL258      0.0276
     33  CG1        8.2870    5.4410   20.0080 C.3   258  VAL258      0.0022
     34  CG2        9.3550    3.4890   21.1700 C.3   258  VAL258      0.0022
     35  N         11.5620    5.4810   15.2290 N.3   275  PHE275     -0.1227
     36  CA        12.9780    5.2840   15.5310 C.3   275  PHE275      0.1736
     37  C         13.1810    3.9260   16.1980 C.2   275  PHE275      0.2596
     38  O         12.2480    3.3610   16.7720 O.2   275  PHE275     -0.2718
     39  CB        13.5260    6.4200   16.4080 C.3   275  PHE275      0.0547
     40  CG        12.7960    6.6110   17.7080 C.ar  275  PHE275     -0.0202
     41  CD1       13.1060    5.8370   18.8160 C.ar  275  PHE275     -0.0042
     42  CD2       11.8050    7.5820   17.8240 C.ar  275  PHE275     -0.0042
     43  CE1       12.4340    6.0320   20.0310 C.ar  275  PHE275     -0.0003
     44  CE2       11.1300    7.7830   19.0260 C.ar  275  PHE275     -0.0003
     45  CZ        11.4440    7.0110   20.1290 C.ar  275  PHE275     -0.0000
     46  N         14.4010    3.4030   16.0970 N.am  276  SER276     -0.1938
     47  CA        14.7240    2.0980   16.6470 C.3   276  SER276      0.2055
     48  C         16.1740    1.9950   17.0900 C.2   276  SER276      0.2644
     49  O         17.0360    2.7360   16.6140 O.2   276  SER276     -0.2714
     50  CB        14.4510    1.0030   15.6010 C.3   276  SER276      0.2130
     51  OG        15.2790    1.1570   14.4470 O.3   276  SER276     -0.2179
     52  N         16.4180    1.0640   18.0130 N.am  277  GLY277     -0.1939
     53  CA        17.7520    0.7900   18.5290 C.3   277  GLY277      0.2014
     54  C         17.8140   -0.7210   18.7120 C.2   277  GLY277      0.2639
     55  O         17.6280   -1.4730   17.7570 O.2   277  GLY277     -0.2714
     56  N         18.0810   -1.1750   19.9290 N.am  278  TRP278     -0.1959
     57  CA        18.1010   -2.6060   20.2170 C.3   278  TRP278      0.1771
     58  C         17.6680   -2.8110   21.6580 C.2   278  TRP278      0.2620
     59  O         17.8600   -1.9490   22.5130 O.2   278  TRP278     -0.2715
     60  CB        19.4830   -3.2250   19.9700 C.3   278  TRP278      0.0590
     61  CG        20.5920   -2.5680   20.6920 C.ar  278  TRP278      0.0006
     62  CD1       20.8670   -2.6450   22.0260 C.ar  278  TRP278      0.0946
     63  CD2       21.5770   -1.7110   20.1210 C.ar  278  TRP278      0.0152
     64  NE1       21.9700   -1.8850   22.3220 N.ar  278  TRP278     -0.2442
     65  CE2       22.4280   -1.2990   21.1690 C.ar  278  TRP278      0.0810
     66  CE3       21.8280   -1.2450   18.8200 C.ar  278  TRP278      0.0012
     67  CZ2       23.5170   -0.4420   20.9600 C.ar  278  TRP278      0.0191
     68  CZ3       22.9090   -0.3940   18.6100 C.ar  278  TRP278      0.0001
     69  CH2       23.7390   -0.0020   19.6750 C.ar  278  TRP278      0.0015
     70  N         17.0760   -3.9610   21.9130 N.am  279  TYR279     -0.1960
     71  CA        16.5620   -4.2920   23.2350 C.3   279  TYR279      0.1771
     72  C         17.5130   -4.4190   24.3980 C.2   279  TYR279      0.2619
     73  O         18.6860   -4.7440   24.2410 O.2   279  TYR279     -0.2715
     74  CB        15.7920   -5.6070   23.1710 C.3   279  TYR279      0.0574
     75  CG        14.3580   -5.4620   22.7840 C.ar  279  TYR279     -0.0198
     76  CD1       13.8590   -6.0840   21.6380 C.ar  279  TYR279     -0.0009
     77  CD2       13.4830   -4.7240   23.5770 C.ar  279  TYR279     -0.0009
     78  CE1       12.5130   -5.9760   21.2940 C.ar  279  TYR279      0.0417
     79  CE2       12.1420   -4.6080   23.2520 C.ar  279  TYR279      0.0417
     80  CZ        11.6720   -5.2380   22.1130 C.ar  279  TYR279      0.1957
     81  OH        10.3480   -5.1360   21.8090 O.3   279  TYR279     -0.2866
     82  N         16.9760   -4.1400   25.5810 N.am  280  MET280     -0.1977
     83  CA        17.6960   -4.3570   26.8250 C.3   280  MET280      0.1605
     84  C         16.8440   -5.5480   27.2600 C.2   280  MET280      0.2287
     85  O         15.6170   -5.4750   27.2260 O.2   280  MET280     -0.2864
     86  CB        17.5630   -3.1830   27.7990 C.3   280  MET280      0.0413
     87  CG        18.1390   -3.4950   29.1880 C.3   280  MET280      0.0598
     88  SD        18.4080   -2.0670   30.2870 S.3   280  MET280     -0.1393
     89  CE        16.7180   -1.8030   30.8830 C.3   280  MET280      0.0692
     90  N         13.2480   -5.5540   29.0330 N.3   283  GLU283     -0.1245
     91  CA        12.0650   -5.0500   28.3440 C.3   283  GLU283      0.1567
     92  C         11.1490   -6.1870   27.9080 C.2   283  GLU283      0.2260
     93  O          9.9220   -6.0770   27.9820 O.2   283  GLU283     -0.2867
     94  CB        12.4460   -4.2550   27.0980 C.3   283  GLU283      0.0388
     95  CG        13.2110   -2.9700   27.3410 C.3   283  GLU283      0.1160
     96  CD        13.5420   -2.2650   26.0370 C.2   283  GLU283      0.3649
     97  OE1       12.6050   -1.7820   25.3810 O.co2 283  GLU283     -0.2457
     98  OE2       14.7300   -2.2050   25.6620 O.co2 283  GLU283     -0.2457
@<TRIPOS>BOND
     1    51    50    1
     2    35    36    1
     3    36    37    1
     4    36    39    1
     5    50    47    1
     6    27    24    1
     7    10     9    2
     8    46    37   am
     9    46    47    1
    10     9     8    1
    11    37    38    2
    12    39    40    1
    13    49    48    2
    14    47    48    1
    15    26    25    2
    16    31    30    2
    17    48    52   am
    18    24    25    1
    19    24    23    1
    20    25    28   am
    21    30    29    1
    22     8     7    1
    23     8    11    1
    24    40    42   ar
    25    40    41   ar
    26    55    54    2
    27    42    44   ar
    28    23    18   am
    29    52    53    1
    30    19    18    2
    31    16    22    1
    32    16    17    1
    33    18    17    1
    34    28    29    1
    35    11    12    1
    36    53    54    1
    37    68    66   ar
    38    68    69   ar
    39    54    56   am
    40    29    32    1
    41    41    43   ar
    42    66    63   ar
    43    22    21    1
    44    17    20    1
    45    44    45   ar
    46    69    67   ar
    47    32    33    1
    48    32    34    1
    49    12    13    1
    50    56    57    1
    51    60    57    1
    52    60    61    1
    53    43    45   ar
    54    21    20    1
    55    63    61   ar
    56    63    65   ar
    57    57    58    1
    58    14    13    2
    59    61    62   ar
    60    13    15   am
    61    67    65   ar
    62    65    64   ar
    63    78    76   ar
    64    78    80   ar
    65    76    75   ar
    66    58    70   am
    67    58    59    2
    68    81    80    1
    69    70    71    1
    70    62    64   ar
    71    80    79   ar
    72    75    74    1
    73    75    77   ar
    74    74    71    1
    75    71    72    1
    76    79    77   ar
    77    73    72    2
    78    72    82   am
    79     6     5    1
    80    97    96   ar
    81    82    83    1
    82    98    96   ar
    83    96    95    1
    84     5     2    1
    85    83    84    1
    86    83    86    1
    87    94    95    1
    88    94    91    1
    89    85    84    2
    90     2     3    1
    91     2     1    1
    92    86    87    1
    93    92    93    2
    94    92    91    1
    95    91    90    1
    96     3     4    2
    97    87    88    1
    98    88    89    1
