@<TRIPOS>MOLECULE
tmp/1m00B03.pdb
 98 100 0 0 0
SMALL
GASTEIGER

@<TRIPOS>ATOM
      1  N         20.3330    4.0120   63.7050 N.3   171  GLN171     -0.1245
      2  CA        19.3380    2.9770   64.0520 C.3   171  GLN171      0.1566
      3  C         19.7210    2.4720   65.4440 C.2   171  GLN171      0.2260
      4  O         20.9060    2.4710   65.7950 O.2   171  GLN171     -0.2867
      5  CB        19.3900    1.7860   63.1080 C.3   171  GLN171      0.0367
      6  CG        18.7170    1.9440   61.7700 C.3   171  GLN171      0.0905
      7  CD        18.9940    0.7370   60.8610 C.2   171  GLN171      0.2608
      8  OE1       18.7740   -0.4580   61.2420 O.2   171  GLN171     -0.2717
      9  NE2       19.4890    1.0270   59.6740 N.am  171  GLN171     -0.0878
     10  N         14.1760   -3.3370   63.3600 N.3   258  PRO258     -0.2102
     11  CA        14.6190   -2.1950   62.5610 C.3   258  PRO258      0.1504
     12  C         14.0930   -0.9350   63.2510 C.2   258  PRO258      0.2576
     13  O         12.8830   -0.6630   63.2550 O.2   258  PRO258     -0.2718
     14  CB        13.9790   -2.4480   61.2050 C.3   258  PRO258      0.0282
     15  CG        12.6570   -3.0890   61.5590 C.3   258  PRO258      0.0208
     16  CD        12.8900   -3.8780   62.8580 C.3   258  PRO258      0.0893
     17  N         14.9950   -0.1620   63.8290 N.am  259  ALA259     -0.1966
     18  CA        14.5680    1.0170   64.5580 C.3   259  ALA259      0.1728
     19  C         15.2890    2.3080   64.1620 C.2   259  ALA259      0.2616
     20  O         16.3920    2.6050   64.6330 O.2   259  ALA259     -0.2715
     21  CB        14.7370    0.7560   66.0330 C.3   259  ALA259      0.0334
     22  N         14.6660    3.0770   63.2890 N.am  260  VAL260     -0.1977
     23  CA        15.2610    4.3390   62.8530 C.3   260  VAL260      0.1596
     24  C         15.3620    5.2520   64.0500 C.2   260  VAL260      0.2287
     25  O         14.3780    5.4780   64.7390 O.2   260  VAL260     -0.2864
     26  CB        14.4030    4.9780   61.7490 C.3   260  VAL260      0.0276
     27  CG1       14.8470    6.4030   61.4540 C.3   260  VAL260      0.0022
     28  CG2       14.5020    4.1020   60.4950 C.3   260  VAL260      0.0022
     29  N         11.9220    5.0670   66.4250 N.3   277  PHE277     -0.1227
     30  CA        10.7180    4.3000   66.0930 C.3   277  PHE277      0.1736
     31  C         11.0240    2.9820   65.3680 C.2   277  PHE277      0.2596
     32  O         12.0340    2.8700   64.6820 O.2   277  PHE277     -0.2718
     33  CB         9.7620    5.1670   65.2610 C.3   277  PHE277      0.0547
     34  CG        10.3420    5.6430   63.9430 C.ar  277  PHE277     -0.0202
     35  CD1       10.2890    4.8300   62.8090 C.ar  277  PHE277     -0.0042
     36  CD2       10.9060    6.9230   63.8300 C.ar  277  PHE277     -0.0042
     37  CE1       10.7850    5.2740   61.5710 C.ar  277  PHE277     -0.0003
     38  CE2       11.4060    7.3710   62.5940 C.ar  277  PHE277     -0.0003
     39  CZ        11.3410    6.5450   61.4690 C.ar  277  PHE277     -0.0000
     40  N         10.1500    1.9890   65.5190 N.am  278  SER278     -0.1938
     41  CA        10.3700    0.6900   64.8740 C.3   278  SER278      0.2055
     42  C          9.1000   -0.0560   64.4730 C.2   278  SER278      0.2644
     43  O          8.0600    0.1010   65.0930 O.2   278  SER278     -0.2714
     44  CB        11.2010   -0.2180   65.7860 C.3   278  SER278      0.2130
     45  OG        10.5520   -0.4100   67.0240 O.3   278  SER278     -0.2179
     46  N          9.2070   -0.8580   63.4170 N.am  279  GLY279     -0.1939
     47  CA         8.0840   -1.6680   62.9560 C.3   279  GLY279      0.2014
     48  C          8.6700   -3.0750   62.8770 C.2   279  GLY279      0.2639
     49  O          9.0360   -3.6620   63.8980 O.2   279  GLY279     -0.2714
     50  N          8.7330   -3.6100   61.6640 N.am  280  TRP280     -0.1959
     51  CA         9.3620   -4.9030   61.3750 C.3   280  TRP280      0.1771
     52  C          9.8940   -4.8310   59.9350 C.2   280  TRP280      0.2619
     53  O          9.5020   -3.9720   59.1300 O.2   280  TRP280     -0.2715
     54  CB         8.3890   -6.0680   61.5620 C.3   280  TRP280      0.0590
     55  CG         7.1370   -5.9220   60.8680 C.ar  280  TRP280      0.0006
     56  CD1        6.8970   -6.1710   59.5470 C.ar  280  TRP280      0.0946
     57  CD2        5.8860   -5.5760   61.4550 C.ar  280  TRP280      0.0152
     58  NE1        5.5620   -6.0130   59.2790 N.ar  280  TRP280     -0.2442
     59  CE2        4.9160   -5.6490   60.4340 C.ar  280  TRP280      0.0810
     60  CE3        5.4880   -5.2190   62.7520 C.ar  280  TRP280      0.0012
     61  CZ2        3.5640   -5.3820   60.6650 C.ar  280  TRP280      0.0191
     62  CZ3        4.1560   -4.9560   62.9920 C.ar  280  TRP280      0.0001
     63  CH2        3.1970   -5.0380   61.9490 C.ar  280  TRP280      0.0015
     64  N         10.8100   -5.7160   59.6260 N.am  281  TYR281     -0.1974
     65  CA        11.4590   -5.7090   58.3170 C.3   281  TYR281      0.1639
     66  C         10.6900   -6.2440   57.1560 C.2   281  TYR281      0.2290
     67  O          9.8530   -7.1210   57.3050 O.2   281  TYR281     -0.2864
     68  CB        12.7390   -6.5430   58.3580 C.3   281  TYR281      0.0560
     69  CG        13.9850   -5.8230   58.8010 C.ar  281  TYR281     -0.0198
     70  CD1       14.6150   -6.1380   60.0120 C.ar  281  TYR281     -0.0009
     71  CD2       14.5670   -4.8560   57.9840 C.ar  281  TYR281     -0.0009
     72  CE1       15.8040   -5.4990   60.3980 C.ar  281  TYR281      0.0417
     73  CE2       15.7640   -4.2080   58.3490 C.ar  281  TYR281      0.0417
     74  CZ        16.3660   -4.5360   59.5430 C.ar  281  TYR281      0.1957
     75  OH        17.5430   -3.8950   59.8320 O.3   281  TYR281     -0.2866
     76  N         15.1350   -5.4090   52.6360 N.3   285  GLU285     -0.1245
     77  CA        15.9880   -4.4150   53.2800 C.3   285  GLU285      0.1567
     78  C         17.2930   -5.1100   53.6760 C.2   285  GLU285      0.2260
     79  O         18.3930   -4.5370   53.5620 O.2   285  GLU285     -0.2867
     80  CB        15.3330   -3.8380   54.5560 C.3   285  GLU285      0.0388
     81  CG        14.0090   -3.0890   54.3430 C.3   285  GLU285      0.1160
     82  CD        13.3830   -2.6310   55.6560 C.2   285  GLU285      0.3649
     83  OE1       13.9900   -1.7650   56.3190 O.co2 285  GLU285     -0.2457
     84  OE2       12.2970   -3.1350   56.0260 O.co2 285  GLU285     -0.2457
     85  N         11.1110    5.3230   46.4780 N.3   371  TRP371     -0.1241
     86  CA        11.3540    4.5830   47.7100 C.3   371  TRP371      0.1605
     87  C         10.3910    3.4120   47.9450 C.2   371  TRP371      0.2264
     88  O         10.7780    2.3950   48.5340 O.2   371  TRP371     -0.2867
     89  CB        11.2740    5.5250   48.9200 C.3   371  TRP371      0.0550
     90  CG        12.5930    6.1550   49.2320 C.ar  371  TRP371      0.0003
     91  CD1       13.3090    7.0140   48.4310 C.ar  371  TRP371      0.0946
     92  CD2       13.3780    5.9400   50.3970 C.ar  371  TRP371      0.0152
     93  NE1       14.5010    7.3400   49.0390 N.ar  371  TRP371     -0.2442
     94  CE2       14.5700    6.6950   50.2450 C.ar  371  TRP371      0.0810
     95  CE3       13.1960    5.1860   51.5620 C.ar  371  TRP371      0.0012
     96  CZ2       15.5700    6.7100   51.2200 C.ar  371  TRP371      0.0191
     97  CZ3       14.2000    5.2050   52.5380 C.ar  371  TRP371      0.0001
     98  CH2       15.3700    5.9610   52.3570 C.ar  371  TRP371      0.0015
@<TRIPOS>BOND
     1    85    86    1
     2    86    87    1
     3    86    89    1
     4    87    88    2
     5    91    93   ar
     6    91    90   ar
     7    89    90    1
     8    93    94   ar
     9    90    92   ar
    10    94    92   ar
    11    94    96   ar
    12    92    95   ar
    13    96    98   ar
    14    95    97   ar
    15    98    97   ar
    16    76    77    1
    17    77    78    1
    18    77    80    1
    19    79    78    2
    20    81    80    1
    21    81    82    1
    22    82    84   ar
    23    82    83   ar
    24    66    67    2
    25    66    65    1
    26    71    73   ar
    27    71    69   ar
    28    65    68    1
    29    65    64    1
    30    73    74   ar
    31    68    69    1
    32    69    70   ar
    33    53    52    2
    34    58    56   ar
    35    58    59   ar
    36    74    75    1
    37    74    72   ar
    38    56    55   ar
    39    64    52   am
    40     9     7   am
    41    52    51    1
    42    70    72   ar
    43    59    61   ar
    44    59    57   ar
    45    28    26    1
    46    61    63   ar
    47     7     8    2
    48     7     6    1
    49    55    57   ar
    50    55    54    1
    51    14    15    1
    52    14    11    1
    53    51    54    1
    54    51    50    1
    55    27    26    1
    56    57    60   ar
    57    39    37   ar
    58    39    38   ar
    59    15    16    1
    60    37    35   ar
    61    50    48   am
    62    26    23    1
    63     6     5    1
    64    63    62   ar
    65    11    12    1
    66    11    10    1
    67    38    36   ar
    68    60    62   ar
    69    35    34   ar
    70    23    22    1
    71    23    24    1
    72    16    10    1
    73    48    47    1
    74    48    49    2
    75    47    46    1
    76     5     2    1
    77    12    13    2
    78    12    17   am
    79    22    19   am
    80    46    42   am
    81     1     2    1
    82    17    18    1
    83    36    34   ar
    84    34    33    1
    85    24    25    2
    86     2     3    1
    87    19    18    1
    88    19    20    2
    89    42    41    1
    90    42    43    2
    91    18    21    1
    92    32    31    2
    93    41    40    1
    94    41    44    1
    95    33    30    1
    96    31    40   am
    97    31    30    1
    98     3     4    2
    99    44    45    1
   100    30    29    1
