@<TRIPOS>MOLECULE
tmp/1m03A00.pdb
 169 165 0 0 0
SMALL
GASTEIGER

@<TRIPOS>ATOM
      1  N         -0.1580   72.7810    1.9390 N.3   155  ARG155     -0.1245
      2  CA         0.3400   73.6150    3.0330 C.3   155  ARG155      0.1563
      3  C          1.5530   74.4080    2.5490 C.2   155  ARG155      0.2260
      4  O          1.6790   75.6010    2.8190 O.2   155  ARG155     -0.2867
      5  CB         0.6530   72.7420    4.2510 C.3   155  ARG155      0.0307
      6  CG        -0.5750   72.4990    5.1480 C.3   155  ARG155      0.0489
      7  CD        -1.8470   72.1480    4.3620 C.3   155  ARG155      0.2205
      8  NE        -2.9950   71.9900    5.2610 N.pl3 155  ARG155     -0.0865
      9  CZ        -3.2410   70.8980    5.9790 C.cat 155  ARG155      0.5346
     10  NH1       -2.4320   69.8480    5.8940 N.pl3 155  ARG155      0.1354
     11  NH2       -4.2710   70.8720    6.8210 N.pl3 155  ARG155      0.1354
     12  N         -2.0010   65.3010   -2.0180 N.3   181  HIS181     -0.1241
     13  CA        -2.9950   66.1280   -1.3360 C.3   181  HIS181      0.1621
     14  C         -2.9660   67.4730   -2.0610 C.2   181  HIS181      0.2264
     15  O         -2.2440   68.3930   -1.6680 O.2   181  HIS181     -0.2867
     16  CB        -2.6070   66.2940    0.1330 C.3   181  HIS181      0.0745
     17  CG        -3.6870   66.8860    0.9810 C.ar  181  HIS181      0.0817
     18  ND1       -4.7680   66.1560    1.4290 N.ar  181  HIS181     -0.2268
     19  CD2       -3.8570   68.1420    1.4570 C.ar  181  HIS181      0.1154
     20  CE1       -5.5560   66.9380    2.1460 C.ar  181  HIS181      0.1986
     21  NE2       -5.0260   68.1480    2.1790 N.ar  181  HIS181     -0.2212
     22  N         -6.3510   72.2270    0.0700 N.3   184  ASP184     -0.1239
     23  CA        -6.6180   72.3660    1.4890 C.3   184  ASP184      0.1674
     24  C         -6.9590   73.8290    1.7610 C.2   184  ASP184      0.2266
     25  O         -7.3070   74.5730    0.8380 O.2   184  ASP184     -0.2867
     26  CB        -5.4100   71.9050    2.3140 C.3   184  ASP184      0.1410
     27  CG        -5.8210   71.3020    3.6440 C.2   184  ASP184      0.3668
     28  OD1       -6.2790   72.0550    4.5250 O.co2 184  ASP184     -0.2456
     29  OD2       -5.7070   70.0690    3.8100 O.co2 184  ASP184     -0.2456
     30  N         -9.8710   67.4480   -1.0790 N.3   239  ASP239     -0.1239
     31  CA       -10.5390   67.3440    0.2170 C.3   239  ASP239      0.1674
     32  C        -11.8880   68.0610    0.2640 C.2   239  ASP239      0.2266
     33  O        -11.9930   69.2260   -0.1200 O.2   239  ASP239     -0.2867
     34  CB        -9.6260   67.9220    1.3000 C.3   239  ASP239      0.1410
     35  CG        -9.7190   67.1760    2.6150 C.2   239  ASP239      0.3668
     36  OD1      -10.7750   66.5690    2.9100 O.co2 239  ASP239     -0.2456
     37  OD2       -8.7230   67.2190    3.3670 O.co2 239  ASP239     -0.2456
     38  N        -11.6560   71.4780    4.9230 N.3   243  HIS243     -0.1241
     39  CA       -10.3440   71.7850    4.3520 C.3   243  HIS243      0.1621
     40  C        -10.5110   72.3550    2.9460 C.2   243  HIS243      0.2264
     41  O         -9.7680   72.0040    2.0260 O.2   243  HIS243     -0.2867
     42  CB        -9.4880   70.5140    4.3040 C.3   243  HIS243      0.0745
     43  CG        -8.9680   70.0890    5.6410 C.ar  243  HIS243      0.0817
     44  ND1       -7.8540   70.6570    6.2180 N.ar  243  HIS243     -0.2268
     45  CD2       -9.4200   69.1670    6.5240 C.ar  243  HIS243      0.1154
     46  CE1       -7.6380   70.1020    7.3980 C.ar  243  HIS243      0.1986
     47  NE2       -8.5750   69.1950    7.6080 N.ar  243  HIS243     -0.2212
     48  N         -6.8070   73.7290   11.6290 N.3   269  VAL269     -0.1245
     49  CA        -7.6740   72.9130   10.7800 C.3   269  VAL269      0.1561
     50  C         -9.0980   72.8250   11.3280 C.2   269  VAL269      0.2260
     51  O         -9.3480   73.1620   12.4900 O.2   269  VAL269     -0.2867
     52  CB        -7.1510   71.4560   10.6670 C.3   269  VAL269      0.0252
     53  CG1       -5.7210   71.4380   10.1410 C.3   269  VAL269      0.0019
     54  CG2       -7.2260   70.7720   12.0320 C.3   269  VAL269      0.0019
     55  N        -12.1650   64.2950    6.0100 N.3   306  ALA306     -0.1231
     56  CA       -11.7560   64.4030    7.4050 C.3   306  ALA306      0.1694
     57  C        -11.8130   65.8360    7.9230 C.2   306  ALA306      0.2591
     58  O        -11.6820   66.7950    7.1630 O.2   306  ALA306     -0.2718
     59  CB       -10.3400   63.8510    7.5800 C.3   306  ALA306      0.0304
     60  N        -12.0190   65.9640    9.2280 N.am  307  GLU307     -0.1979
     61  CA       -12.0630   67.2600    9.8940 C.3   307  GLU307      0.1602
     62  C        -13.0150   68.2900    9.2900 C.2   307  GLU307      0.2287
     63  O        -12.6720   69.4680    9.1580 O.2   307  GLU307     -0.2864
     64  CB       -10.6450   67.8340    9.9710 C.3   307  GLU307      0.0415
     65  CG        -9.6450   66.8370   10.5530 C.3   307  GLU307      0.1163
     66  CD        -8.2540   67.4090   10.7190 C.2   307  GLU307      0.3649
     67  OE1       -7.7620   68.0710    9.7830 O.co2 307  GLU307     -0.2457
     68  OE2       -7.6430   67.1850   11.7860 O.co2 307  GLU307     -0.2457
     69  N        -11.0360   59.6710    3.8930 N.3   337  TRP337     -0.1241
     70  CA       -10.4640   59.4340    5.2110 C.3   337  TRP337      0.1605
     71  C        -11.5340   58.6370    5.9570 C.2   337  TRP337      0.2264
     72  O        -12.6930   58.6420    5.5430 O.2   337  TRP337     -0.2867
     73  CB       -10.1270   60.7590    5.9000 C.3   337  TRP337      0.0550
     74  CG        -9.0280   61.5090    5.1750 C.ar  337  TRP337      0.0003
     75  CD1       -9.1790   62.5710    4.3270 C.ar  337  TRP337      0.0946
     76  CD2       -7.6240   61.2160    5.2050 C.ar  337  TRP337      0.0152
     77  NE1       -7.9550   62.9570    3.8260 N.ar  337  TRP337     -0.2442
     78  CE2       -6.9840   62.1420    4.3480 C.ar  337  TRP337      0.0810
     79  CE3       -6.8430   60.2590    5.8740 C.ar  337  TRP337      0.0012
     80  CZ2       -5.5970   62.1420    4.1410 C.ar  337  TRP337      0.0191
     81  CZ3       -5.4580   60.2590    5.6680 C.ar  337  TRP337      0.0001
     82  CH2       -4.8520   61.1960    4.8060 C.ar  337  TRP337      0.0015
     83  N         -6.7700   57.1050    9.9570 N.3   354  TRP354     -0.1241
     84  CA        -5.6770   57.8750   10.5380 C.3   354  TRP354      0.1605
     85  C         -5.8420   58.0230   12.0500 C.2   354  TRP354      0.2264
     86  O         -5.3650   58.9900   12.6470 O.2   354  TRP354     -0.2867
     87  CB        -5.5830   59.2570    9.8710 C.3   354  TRP354      0.0550
     88  CG        -6.8320   60.0820    9.9500 C.ar  354  TRP354      0.0003
     89  CD1       -8.0100   59.8680    9.2860 C.ar  354  TRP354      0.0946
     90  CD2       -7.0210   61.2670   10.7300 C.ar  354  TRP354      0.0152
     91  NE1       -8.9190   60.8510    9.6070 N.ar  354  TRP354     -0.2442
     92  CE2       -8.3370   61.7210   10.4910 C.ar  354  TRP354      0.0810
     93  CE3       -6.2030   61.9920   11.6080 C.ar  354  TRP354      0.0012
     94  CZ2       -8.8550   62.8690   11.1000 C.ar  354  TRP354      0.0191
     95  CZ3       -6.7180   63.1340   12.2110 C.ar  354  TRP354      0.0001
     96  CH2       -8.0330   63.5600   11.9530 C.ar  354  TRP354      0.0015
     97  N          2.3470   59.0420   10.3330 N.3   386  TYR386     -0.1241
     98  CA         2.2780   60.4380    9.9060 C.3   386  TYR386      0.1605
     99  C          3.7230   60.9200   10.0260 C.2   386  TYR386      0.2264
    100  O          4.2340   61.1210   11.1320 O.2   386  TYR386     -0.2867
    101  CB         1.3620   61.2390   10.8330 C.3   386  TYR386      0.0534
    102  CG        -0.0670   61.3510   10.3480 C.ar  386  TYR386     -0.0201
    103  CD1       -0.6750   60.3130    9.6320 C.ar  386  TYR386     -0.0009
    104  CD2       -0.8170   62.4980   10.6110 C.ar  386  TYR386     -0.0009
    105  CE1       -1.9940   60.4230    9.1880 C.ar  386  TYR386      0.0417
    106  CE2       -2.1320   62.6180   10.1740 C.ar  386  TYR386      0.0417
    107  CZ        -2.7120   61.5820    9.4630 C.ar  386  TYR386      0.1957
    108  OH        -4.0000   61.7260    9.0100 O.3   386  TYR386     -0.2866
    109  N          5.0220   63.7020    9.5120 N.3   388  ASP388     -0.1225
    110  CA         5.2070   65.0720    9.9760 C.3   388  ASP388      0.1805
    111  C          5.2570   65.1160   11.4980 C.2   388  ASP388      0.2597
    112  O          5.5480   66.1580   12.0870 O.2   388  ASP388     -0.2718
    113  CB         4.0750   65.9770    9.4640 C.3   388  ASP388      0.1424
    114  CG         2.7020   65.5620    9.9820 C.2   388  ASP388      0.3668
    115  OD1        2.3810   64.3600    9.9230 O.co2 388  ASP388     -0.2456
    116  OD2        1.9390   66.4420   10.4340 O.co2 388  ASP388     -0.2456
    117  N          4.9810   63.9880   12.1430 N.am  389  MET389     -0.1979
    118  CA         4.9940   63.9630   13.6010 C.3   389  MET389      0.1605
    119  C          6.4190   63.9210   14.1390 C.2   389  MET389      0.2287
    120  O          7.2680   63.1960   13.6220 O.2   389  MET389     -0.2864
    121  CB         4.1980   62.7680   14.1290 C.3   389  MET389      0.0413
    122  CG         3.4050   63.0760   15.4030 C.3   389  MET389      0.0598
    123  SD         2.1640   64.3860   15.1660 S.3   389  MET389     -0.1393
    124  CE         1.1340   63.6500   13.8860 C.3   389  MET389      0.0692
    125  N          4.9540   68.2590   13.9090 N.3   399  LEU399     -0.1245
    126  CA         3.9300   68.5290   14.9160 C.3   399  LEU399      0.1561
    127  C          3.9550   67.5050   16.0550 C.2   399  LEU399      0.2260
    128  O          4.6660   66.5030   15.9850 O.2   399  LEU399     -0.2867
    129  CB         2.5470   68.5420   14.2550 C.3   399  LEU399      0.0270
    130  CG         2.3890   69.5250   13.0870 C.3   399  LEU399      0.0019
    131  CD1        0.9630   69.4430   12.5480 C.3   399  LEU399      0.0001
    132  CD2        2.7070   70.9480   13.5480 C.3   399  LEU399      0.0001
    133  N          0.7240   66.8850   18.1020 N.3   401  TRP401     -0.1241
    134  CA        -0.6210   66.6240   18.5930 C.3   401  TRP401      0.1605
    135  C         -0.9430   65.1410   18.7860 C.2   401  TRP401      0.2264
    136  O         -1.7970   64.7940   19.6020 O.2   401  TRP401     -0.2867
    137  CB        -1.6620   67.2620   17.6670 C.3   401  TRP401      0.0550
    138  CG        -1.7190   66.6590   16.2980 C.ar  401  TRP401      0.0003
    139  CD1       -1.0430   67.0730   15.1840 C.ar  401  TRP401      0.0946
    140  CD2       -2.5060   65.5330   15.8980 C.ar  401  TRP401      0.0152
    141  NE1       -1.3680   66.2730   14.1120 N.ar  401  TRP401     -0.2442
    142  CE2       -2.2620   65.3190   14.5240 C.ar  401  TRP401      0.0810
    143  CE3       -3.3960   64.6820   16.5700 C.ar  401  TRP401      0.0012
    144  CZ2       -2.8790   64.2880   13.8050 C.ar  401  TRP401      0.0191
    145  CZ3       -4.0080   63.6570   15.8570 C.ar  401  TRP401      0.0001
    146  CH2       -3.7450   63.4700   14.4860 C.ar  401  TRP401      0.0015
    147  N          2.6410   65.5080    5.8770 N.3   435  TRP435     -0.1241
    148  CA         1.9500   66.7930    5.8880 C.3   435  TRP435      0.1605
    149  C          2.9940   67.9010    5.9120 C.2   435  TRP435      0.2264
    150  O          4.0730   67.7280    6.4770 O.2   435  TRP435     -0.2867
    151  CB         1.0300   66.8690    7.1060 C.3   435  TRP435      0.0550
    152  CG        -0.0130   65.7930    7.0840 C.ar  435  TRP435      0.0003
    153  CD1       -0.0250   64.6370    7.8160 C.ar  435  TRP435      0.0946
    154  CD2       -1.1830   65.7610    6.2620 C.ar  435  TRP435      0.0152
    155  NE1       -1.1350   63.8870    7.4980 N.ar  435  TRP435     -0.2442
    156  CE2       -1.8630   64.5560    6.5470 C.ar  435  TRP435      0.0810
    157  CE3       -1.7240   66.6360    5.3090 C.ar  435  TRP435      0.0012
    158  CZ2       -3.0590   64.2030    5.9140 C.ar  435  TRP435      0.0191
    159  CZ3       -2.9170   66.2850    4.6780 C.ar  435  TRP435      0.0001
    160  CH2       -3.5700   65.0780    4.9860 C.ar  435  TRP435      0.0015
    161  N          2.6900   71.5020    6.9840 N.3   437  GLU437     -0.1245
    162  CA         2.5000   72.7740    7.6730 C.3   437  GLU437      0.1567
    163  C          3.8490   73.3510    8.1000 C.2   437  GLU437      0.2260
    164  O          4.0330   74.5650    8.1040 O.2   437  GLU437     -0.2867
    165  CB         1.6410   72.6160    8.9350 C.3   437  GLU437      0.0388
    166  CG         0.1540   72.4790    8.6780 C.3   437  GLU437      0.1160
    167  CD        -0.2920   71.0370    8.6080 C.2   437  GLU437      0.3649
    168  OE1        0.4900   70.1920    8.1250 O.co2 437  GLU437     -0.2457
    169  OE2       -1.4320   70.7540    9.0280 O.co2 437  GLU437     -0.2457
@<TRIPOS>BOND
     1    14    15    2
     2    14    13    1
     3    12    13    1
     4    13    16    1
     5    30    31    1
     6    33    32    2
     7    22    23    1
     8    16    17    1
     9    31    32    1
    10    31    34    1
    11    25    24    2
    12    17    18   ar
    13    17    19   ar
    14    34    35    1
    15    18    20   ar
    16    19    21   ar
    17    23    24    1
    18    23    26    1
    19     1     2    1
    20    41    40    2
    21    20    21   ar
    22    26    27    1
    23     3     4    2
    24     3     2    1
    25    35    36   ar
    26    35    37   ar
    27    40    39    1
    28     2     5    1
    29    27    29   ar
    30    27    28   ar
    31    77    75   ar
    32    77    78   ar
    33    69    70    1
    34    80    78   ar
    35    80    82   ar
    36     5     6    1
    37    42    39    1
    38    42    43    1
    39    75    74   ar
    40    78    76   ar
    41    39    38    1
    42     7     6    1
    43     7     8    1
    44   159   160   ar
    45   159   157   ar
    46    82    81   ar
    47   160   158   ar
    48    74    76   ar
    49    74    73    1
    50    76    79   ar
    51    70    73    1
    52    70    71    1
    53     8     9    2
    54   157   154   ar
    55    72    71    2
    56    43    44   ar
    57    43    45   ar
    58    81    79   ar
    59   147   148    1
    60   148   149    1
    61   148   151    1
    62    10     9    1
    63   149   150    2
    64   158   156   ar
    65     9    11    1
    66    55    56    1
    67    44    46   ar
    68   154   156   ar
    69   154   152   ar
    70    45    47   ar
    71   156   155   ar
    72   161   162    1
    73   152   151    1
    74   152   153   ar
    75    58    57    2
    76    46    47   ar
    77    56    59    1
    78    56    57    1
    79   155   153   ar
    80   162   163    1
    81   162   165    1
    82    57    60   am
    83   163   164    2
    84   168   167   ar
    85   167   166    1
    86   167   169   ar
    87   166   165    1
    88   108   107    1
    89    63    62    2
    90   105   107   ar
    91   105   103   ar
    92    60    61    1
    93    89    91   ar
    94    89    88   ar
    95    62    61    1
    96   107   106   ar
    97   113   110    1
    98   113   114    1
    99   109   110    1
   100    91    92   ar
   101   103   102   ar
   102    67    66   ar
   103    87    88    1
   104    87    84    1
   105    61    64    1
   106    98    99    1
   107    98    97    1
   108    98   101    1
   109   115   114   ar
   110    88    90   ar
   111    83    84    1
   112    64    65    1
   113   110   111    1
   114   114   116   ar
   115    99   100    2
   116    53    52    1
   117   106   104   ar
   118   102   104   ar
   119   102   101    1
   120    92    90   ar
   121    92    94   ar
   122    84    85    1
   123    65    66    1
   124    52    49    1
   125    52    54    1
   126    66    68   ar
   127    90    93   ar
   128    49    50    1
   129    49    48    1
   130    94    96   ar
   131    50    51    2
   132   111   112    2
   133   111   117   am
   134    93    95   ar
   135    96    95   ar
   136    85    86    2
   137   117   118    1
   138   131   130    1
   139   130   132    1
   140   130   129    1
   141   118   121    1
   142   118   119    1
   143   120   119    2
   144   144   146   ar
   145   144   142   ar
   146   124   123    1
   147   125   126    1
   148   141   142   ar
   149   141   139   ar
   150   121   122    1
   151   129   126    1
   152   146   145   ar
   153   142   140   ar
   154   126   127    1
   155   123   122    1
   156   139   138   ar
   157   145   143   ar
   158   140   138   ar
   159   140   143   ar
   160   128   127    2
   161   138   137    1
   162   137   134    1
   163   133   134    1
   164   134   135    1
   165   135   136    2
