@<TRIPOS>MOLECULE
tmp/1m07C00.pdb
 139 135 0 0 0
SMALL
GASTEIGER

@<TRIPOS>ATOM
      1  N          1.6740   -2.4920   19.4730 N.3     1  ASN1       -0.1240
      2  CA         1.6420   -1.4600   18.4440 C.3     1  ASN1        0.1653
      3  C          1.9470   -0.1730   19.2080 C.2     1  ASN1        0.2266
      4  O          2.0800   -0.2070   20.4360 O.2     1  ASN1       -0.2867
      5  CB         0.2570   -1.4030   17.8120 C.3     1  ASN1        0.1155
      6  CG        -0.8400   -1.4570   18.8510 C.2     1  ASN1        0.2627
      7  OD1       -1.0150   -0.5270   19.6370 O.2     1  ASN1       -0.2716
      8  ND2       -1.5740   -2.5690   18.8730 N.am    1  ASN1       -0.0877
      9  N          0.7950    1.3940   27.8050 N.3     8  LYS8       -0.1231
     10  CA         1.4220    0.5540   28.8260 C.3     8  LYS8        0.1693
     11  C          2.6820    1.1250   29.4490 C.2     8  LYS8        0.2592
     12  O          2.9090    0.9700   30.6560 O.2     8  LYS8       -0.2718
     13  CB         1.8150   -0.7910   28.2260 C.3     8  LYS8        0.0285
     14  CG         0.6670   -1.7750   27.9260 C.3     8  LYS8        0.0035
     15  CD         1.2520   -3.0020   27.2550 C.3     8  LYS8        0.0206
     16  CE         0.1950   -4.0520   26.8970 C.3     8  LYS8        0.1093
     17  NZ         0.8120   -5.0710   26.0020 N.3     8  LYS8       -0.1314
     18  N          3.4850    1.7950   28.6200 N.am    9  HIS9       -0.1976
     19  CA         4.8100    2.2550   29.0480 C.3     9  HIS9        0.1656
     20  C          5.1640    3.7250   29.1260 C.2     9  HIS9        0.2291
     21  O          6.2110    4.0480   29.6620 O.2     9  HIS9       -0.2864
     22  CB         5.8480    1.5900   28.1400 C.3     9  HIS9        0.0771
     23  CG         5.8000    0.0970   28.1750 C.ar    9  HIS9        0.0820
     24  ND1        6.2550   -0.6290   29.2520 N.ar    9  HIS9       -0.2267
     25  CD2        5.3690   -0.8050   27.2600 C.ar    9  HIS9        0.1154
     26  CE1        6.1190   -1.9200   28.9960 C.ar    9  HIS9        0.1986
     27  NE2        5.5840   -2.0530   27.7920 N.ar    9  HIS9       -0.2212
     28  N          0.2050   -8.7760   35.7050 N.3    34  LYS34      -0.1231
     29  CA         1.4730   -8.9290   34.9900 C.3    34  LYS34       0.1693
     30  C          2.6970   -8.9500   35.9140 C.2    34  LYS34       0.2592
     31  O          2.7130   -8.2840   36.9440 O.2    34  LYS34      -0.2718
     32  CB         1.6170   -7.7800   33.9960 C.3    34  LYS34       0.0285
     33  CG         2.3990   -8.1080   32.7570 C.3    34  LYS34       0.0035
     34  CD         2.3090   -6.9590   31.7800 C.3    34  LYS34       0.0206
     35  CE         2.8260   -7.3640   30.4000 C.3    34  LYS34       0.1093
     36  NZ         2.6610   -6.2570   29.4120 N.3    34  LYS34      -0.1314
     37  N          3.7410   -9.6640   35.4930 N.am   35  ARG35      -0.1966
     38  CA         4.9630   -9.7820   36.2850 C.3    35  ARG35       0.1729
     39  C          5.7580   -8.4790   36.4030 C.2    35  ARG35       0.2616
     40  O          6.1940   -8.0980   37.4950 O.2    35  ARG35      -0.2715
     41  CB         5.8730  -10.8720   35.6820 C.3    35  ARG35       0.0348
     42  CG         7.0150  -11.2790   36.5920 C.3    35  ARG35       0.0492
     43  CD         7.9190  -12.3390   35.9570 C.3    35  ARG35       0.2205
     44  NE         9.2130  -11.7640   35.5850 N.pl3  35  ARG35      -0.0865
     45  CZ         9.4710  -11.2460   34.3970 C.cat  35  ARG35       0.5346
     46  NH1        8.5300  -11.2530   33.4760 N.pl3  35  ARG35       0.1354
     47  NH2       10.6480  -10.6960   34.1410 N.pl3  35  ARG35       0.1354
     48  N          5.9390   -7.7820   35.2930 N.am   36  VAL36      -0.1963
     49  CA         6.7340   -6.5400   35.3430 C.3    36  VAL36       0.1727
     50  C          6.3500   -5.5360   34.2700 C.2    36  VAL36       0.2616
     51  O          5.9580   -5.9050   33.1640 O.2    36  VAL36      -0.2715
     52  CB         8.2670   -6.8850   35.2000 C.3    36  VAL36       0.0290
     53  CG1        8.5280   -7.6070   33.8860 C.3    36  VAL36       0.0023
     54  CG2        9.1200   -5.6040   35.2490 C.3    36  VAL36       0.0023
     55  N          6.4310   -4.2530   34.6000 N.am   37  ASN37      -0.1958
     56  CA         6.1460   -3.2330   33.6020 C.3    37  ASN37       0.1819
     57  C          6.9960   -2.0140   33.8880 C.2    37  ASN37       0.2621
     58  O          6.9950   -1.4770   35.0070 O.2    37  ASN37      -0.2715
     59  CB         4.6840   -2.8010   33.6140 C.3    37  ASN37       0.1195
     60  CG         4.3460   -1.8840   32.4260 C.2    37  ASN37       0.2630
     61  OD1        4.2810   -2.3480   31.2950 O.2    37  ASN37      -0.2716
     62  ND2        4.1600   -0.5910   32.6850 N.am   37  ASN37      -0.0877
     63  N          7.7170   -1.5780   32.8670 N.am   38  THR38      -0.1951
     64  CA         8.5420   -0.4040   32.9940 C.3    38  THR38       0.1897
     65  C          7.8250    0.8040   32.4520 C.2    38  THR38       0.2313
     66  O          7.2710    0.7770   31.3490 O.2    38  THR38      -0.2863
     67  CB         9.8460   -0.5540   32.2170 C.3    38  THR38       0.1794
     68  OG1       10.6100   -1.6230   32.8020 O.3    38  THR38      -0.2208
     69  CG2       10.6330    0.7670   32.2300 C.3    38  THR38       0.0378
     70  N         10.3370    1.0340   37.1860 N.3    69  THR69      -0.1218
     71  CA         9.9010   -0.3270   36.8790 C.3    69  THR69       0.1862
     72  C          9.1590   -0.9180   38.0500 C.2    69  THR69       0.2287
     73  O          9.6530   -0.9200   39.1790 O.2    69  THR69      -0.2866
     74  CB        11.0950   -1.2550   36.5140 C.3    69  THR69       0.1770
     75  OG1       11.6980   -0.7870   35.3050 O.3    69  THR69      -0.2211
     76  CG2       10.6340   -2.7110   36.2740 C.3    69  THR69       0.0375
     77  N         11.3330   -2.2510   20.2360 N.3    94  LYS94      -0.1245
     78  CA        11.2210   -2.7830   18.9080 C.3    94  LYS94       0.1561
     79  C         10.6300   -1.6480   18.0740 C.2    94  LYS94       0.2260
     80  O          9.5800   -1.0810   18.4110 O.2    94  LYS94      -0.2867
     81  CB        10.2870   -3.9960   18.8490 C.3    94  LYS94       0.0271
     82  CG        10.0870   -4.5070   17.4210 C.3    94  LYS94       0.0035
     83  CD        11.3600   -5.1420   16.8660 C.3    94  LYS94       0.0206
     84  CE        11.2270   -5.4730   15.3670 C.3    94  LYS94       0.1093
     85  NZ        10.0740   -6.3520   15.0380 N.3    94  LYS94      -0.1314
     86  N          8.9500   -0.6380   14.6480 N.3    96  GLU96      -0.1245
     87  CA         8.2920   -1.1570   13.4510 C.3    96  GLU96       0.1567
     88  C          7.6370    0.0160   12.7340 C.2    96  GLU96       0.2260
     89  O          6.7370    0.6740   13.2820 O.2    96  GLU96      -0.2867
     90  CB         7.2590   -2.2160   13.8280 C.3    96  GLU96       0.0388
     91  CG         7.8930   -3.5820   13.9990 C.3    96  GLU96       0.1160
     92  CD         6.9830   -4.5790   14.6790 C.2    96  GLU96       0.3649
     93  OE1        5.7530   -4.3880   14.6370 O.co2  96  GLU96      -0.2457
     94  OE2        7.5050   -5.5570   15.2530 O.co2  96  GLU96      -0.2457
     95  N          6.9840   -0.4790   19.4160 N.3   101  VAL101     -0.1231
     96  CA         5.8380   -1.3750   19.5540 C.3   101  VAL101      0.1692
     97  C          6.0090   -2.4430   20.6320 C.2   101  VAL101      0.2592
     98  O          5.1320   -3.2770   20.8510 O.2   101  VAL101     -0.2718
     99  CB         5.5260   -2.0680   18.2000 C.3   101  VAL101      0.0266
    100  CG1        5.3180   -1.0040   17.1380 C.3   101  VAL101      0.0020
    101  CG2        6.6820   -2.9970   17.7660 C.3   101  VAL101      0.0020
    102  N          7.1430   -2.4140   21.3200 N.am  102  HIS102     -0.1962
    103  CA         7.4020   -3.3980   22.3470 C.3   102  HIS102      0.1787
    104  C          8.5790   -2.9080   23.1710 C.2   102  HIS102      0.2620
    105  O          9.5260   -2.3820   22.6230 O.2   102  HIS102     -0.2715
    106  CB         7.7430   -4.7400   21.6930 C.3   102  HIS102      0.0785
    107  CG         8.3030   -5.7490   22.6450 C.ar  102  HIS102      0.0821
    108  ND1        7.5790   -6.2630   23.7030 N.ar  102  HIS102     -0.2267
    109  CD2        9.5090   -6.3580   22.6850 C.ar  102  HIS102      0.1154
    110  CE1        8.3170   -7.1470   24.3500 C.ar  102  HIS102      0.1986
    111  NE2        9.4920   -7.2230   23.7530 N.ar  102  HIS102     -0.2212
    112  N          8.4840   -3.0320   24.4890 N.am  103  PHE103     -0.1960
    113  CA         9.5790   -2.6120   25.3580 C.3   103  PHE103      0.1771
    114  C         10.4940   -3.8500   25.4730 C.2   103  PHE103      0.2619
    115  O         10.1400   -4.8440   26.1120 O.2   103  PHE103     -0.2715
    116  CB         9.0260   -2.1740   26.7240 C.3   103  PHE103      0.0574
    117  CG        10.0880   -1.6400   27.6650 C.ar  103  PHE103     -0.0200
    118  CD1       10.7930   -2.5000   28.4980 C.ar  103  PHE103     -0.0042
    119  CD2       10.4060   -0.2820   27.6660 C.ar  103  PHE103     -0.0042
    120  CE1       11.8120   -2.0060   29.3280 C.ar  103  PHE103     -0.0003
    121  CE2       11.4210    0.2200   28.4870 C.ar  103  PHE103     -0.0003
    122  CZ        12.1230   -0.6460   29.3170 C.ar  103  PHE103     -0.0000
    123  N         11.6820   -3.7600   24.8710 N.am  104  ALA104     -0.1963
    124  CA        12.6010   -4.8940   24.8030 C.3   104  ALA104      0.1732
    125  C         13.6960   -5.0250   25.8550 C.2   104  ALA104      0.2656
    126  O         14.2480   -6.1260   26.0450 O.2   104  ALA104     -0.2711
    127  CB        13.2250   -4.9530   23.3900 C.3   104  ALA104      0.0334
    128  N         14.0460   -3.9320   26.5190 N.am  105  GLY105     -0.1716
    129  CA        15.0600   -4.0520   27.5530 C.2   105  GLY105      0.1480
    130  C         15.5360   -2.7500   28.1410 C.2   105  GLY105      0.2820
    131  O         15.2740   -1.6730   27.5970 O.2   105  GLY105     -0.2669
    132  N         16.2200   -2.8500   29.2710 N.am  106  ILE106     -0.1943
    133  CA        16.7790   -1.6900   29.9480 C.3   106  ILE106      0.1599
    134  C         18.2970   -1.8010   29.8590 C.2   106  ILE106      0.2287
    135  O         18.8580   -2.8530   30.1790 O.2   106  ILE106     -0.2864
    136  CB        16.3910   -1.6730   31.4460 C.3   106  ILE106      0.0276
    137  CG1       14.8850   -1.4320   31.5990 C.3   106  ILE106      0.0022
    138  CG2       17.2060   -0.5800   32.2000 C.3   106  ILE106      0.0022
    139  CD1       14.4290   -1.4710   33.0660 C.3   106  ILE106      0.0001
@<TRIPOS>BOND
     1    88    89    2
     2    88    87    1
     3    87    90    1
     4    87    86    1
     5    90    91    1
     6    91    92    1
     7    93    92   ar
     8    92    94   ar
     9    85    84    1
    10    84    83    1
    11    83    82    1
    12   100    99    1
    13    82    81    1
    14   101    99    1
    15     5     2    1
    16     5     6    1
    17    79    80    2
    18    79    78    1
    19    99    96    1
    20     2     3    1
    21     2     1    1
    22    81    78    1
    23     6     8   am
    24     6     7    2
    25    78    77    1
    26     3     4    2
    27    95    96    1
    28    96    97    1
    29    97    98    2
    30    97   102   am
    31   102   103    1
    32   106   103    1
    33   106   107    1
    34   103   104    1
    35   105   104    2
    36   107   109   ar
    37   107   108   ar
    38   109   111   ar
    39   104   112   am
    40   127   124    1
    41   108   110   ar
    42   111   110   ar
    43   112   113    1
    44   124   123    1
    45   124   125    1
    46   123   114   am
    47   113   114    1
    48   113   116    1
    49   114   115    2
    50   125   126    2
    51   125   128    1
    52    17    16    1
    53   128   129    2
    54   116   117    1
    55    16    15    1
    56    15    14    1
    57    25    27   ar
    58    25    23   ar
    59   129   130    1
    60   131   130    2
    61   117   119   ar
    62   117   118   ar
    63   119   121   ar
    64    27    26   ar
    65     9    10    1
    66    14    13    1
    67    22    23    1
    68    22    19    1
    69   130   132   am
    70    23    24   ar
    71    13    10    1
    72   121   122   ar
    73   118   120   ar
    74    18    19    1
    75    18    11   am
    76    10    11    1
    77    26    24   ar
    78    19    20    1
    79    20    21    2
    80   132   133    1
    81   122   120   ar
    82    36    35    1
    83    11    12    2
    84   134   133    1
    85   134   135    2
    86   133   136    1
    87    35    34    1
    88    61    60    2
    89    66    65    2
    90   136   137    1
    91   136   138    1
    92   137   139    1
    93    34    33    1
    94    67    69    1
    95    67    68    1
    96    67    64    1
    97    60    62   am
    98    60    59    1
    99    65    64    1
   100    33    32    1
   101    63    64    1
   102    63    57   am
   103    51    50    2
   104    46    45    1
   105    56    59    1
   106    56    57    1
   107    56    55    1
   108    53    52    1
   109    57    58    2
   110    32    29    1
   111    47    45    1
   112    50    55   am
   113    50    49    1
   114    45    44    2
   115    29    28    1
   116    29    30    1
   117    52    54    1
   118    52    49    1
   119    48    49    1
   120    48    39   am
   121    75    74    1
   122    37    30   am
   123    37    38    1
   124    44    43    1
   125    41    38    1
   126    41    42    1
   127    30    31    2
   128    43    42    1
   129    76    74    1
   130    38    39    1
   131    39    40    2
   132    74    71    1
   133    71    70    1
   134    71    72    1
   135    72    73    2
