@<TRIPOS>MOLECULE
tmp/1m0kA04.pdb
 80 77 0 0 0
SMALL
GASTEIGER

@<TRIPOS>ATOM
      1  N         12.8400   49.5940  -18.1160 N.3    68  GLY68      -0.1225
      2  CA        13.9210   50.0770  -18.9710 C.3    68  GLY68       0.1811
      3  C         13.9740   49.4040  -20.3330 C.2    68  GLY68       0.2280
      4  O         15.0340   49.1650  -20.9300 O.2    68  GLY68      -0.2866
      5  N         10.2860   52.1480  -14.5480 N.3   127  TYR127     -0.1227
      6  CA        11.5760   52.1990  -13.8560 C.3   127  TYR127      0.1736
      7  C         11.6890   53.2440  -12.7730 C.2   127  TYR127      0.2596
      8  O         12.1330   52.9520  -11.6520 O.2   127  TYR127     -0.2718
      9  CB        12.6500   52.4930  -14.9040 C.3   127  TYR127      0.0548
     10  CG        14.0720   52.4110  -14.4360 C.ar  127  TYR127     -0.0200
     11  CD1       14.6680   51.2180  -14.0350 C.ar  127  TYR127     -0.0009
     12  CD2       14.8250   53.5830  -14.4410 C.ar  127  TYR127     -0.0009
     13  CE1       15.9990   51.1810  -13.6150 C.ar  127  TYR127      0.0417
     14  CE2       16.1410   53.5470  -14.0300 C.ar  127  TYR127      0.0417
     15  CZ        16.7120   52.3610  -13.6270 C.ar  127  TYR127      0.1957
     16  OH        18.0380   52.4170  -13.2380 O.3   127  TYR127     -0.2866
     17  N         11.3480   54.5370  -12.9980 N.am  128  SER128     -0.1952
     18  CA        11.4580   55.5050  -11.9120 C.3   128  SER128      0.1924
     19  C         10.6510   55.1620  -10.6620 C.2   128  SER128      0.2314
     20  O         11.0240   55.4390   -9.5300 O.2   128  SER128     -0.2863
     21  CB        10.9850   56.9050  -12.3510 C.3   128  SER128      0.2116
     22  OG        11.7930   57.3080  -13.4480 O.3   128  SER128     -0.2180
     23  N         12.0860   53.0760   -7.5500 N.3   131  PHE131     -0.1227
     24  CA        12.8550   53.6550   -6.4670 C.3   131  PHE131      0.1736
     25  C         11.9610   54.4160   -5.4970 C.2   131  PHE131      0.2595
     26  O         12.4170   54.6810   -4.4130 O.2   131  PHE131     -0.2718
     27  CB        13.8460   54.6240   -7.1480 C.3   131  PHE131      0.0547
     28  CG        14.7420   53.9250   -8.1650 C.ar  131  PHE131     -0.0202
     29  CD1       15.8390   53.2400   -7.5980 C.ar  131  PHE131     -0.0042
     30  CD2       14.5670   53.9250   -9.5270 C.ar  131  PHE131     -0.0042
     31  CE1       16.7180   52.5730   -8.4360 C.ar  131  PHE131     -0.0003
     32  CE2       15.4380   53.2600  -10.3720 C.ar  131  PHE131     -0.0003
     33  CZ        16.5210   52.5760   -9.7990 C.ar  131  PHE131     -0.0000
     34  N         10.7210   54.7520   -5.9190 N.am  132  VAL132     -0.1980
     35  CA         9.7720   55.2330   -4.9210 C.3   132  VAL132      0.1595
     36  C          9.5090   54.1280   -3.8800 C.2   132  VAL132      0.2287
     37  O          9.5610   54.3500   -2.6930 O.2   132  VAL132     -0.2864
     38  CB         8.4590   55.6580   -5.5780 C.3   132  VAL132      0.0276
     39  CG1        7.4070   56.1140   -4.5650 C.3   132  VAL132      0.0022
     40  CG2        8.7410   56.8330   -6.5240 C.3   132  VAL132      0.0022
     41  N         11.4940   51.5580   -3.2740 N.3   134  TRP134     -0.1227
     42  CA        12.7280   51.4180   -2.4610 C.3   134  TRP134      0.1737
     43  C         12.7800   52.3740   -1.2870 C.2   134  TRP134      0.2595
     44  O         13.2260   52.0630   -0.1940 O.2   134  TRP134     -0.2718
     45  CB        13.9050   51.6240   -3.4340 C.3   134  TRP134      0.0564
     46  CG        15.2460   51.4880   -2.7520 C.ar  134  TRP134      0.0003
     47  CD1       15.9840   50.3410   -2.5670 C.ar  134  TRP134      0.0946
     48  CD2       15.9910   52.5510   -2.1960 C.ar  134  TRP134      0.0152
     49  NE1       17.1860   50.6300   -1.9120 N.ar  134  TRP134     -0.2442
     50  CE2       17.1840   51.9930   -1.6780 C.ar  134  TRP134      0.0810
     51  CE3       15.7800   53.9390   -2.0820 C.ar  134  TRP134      0.0012
     52  CZ2       18.1540   52.7830   -1.0450 C.ar  134  TRP134      0.0191
     53  CZ3       16.7420   54.7230   -1.4540 C.ar  134  TRP134      0.0001
     54  CH2       17.9110   54.1300   -0.9480 C.ar  134  TRP134      0.0015
     55  N         12.3460   53.6360   -1.5250 N.am  135  ALA135     -0.1980
     56  CA        12.5270   54.6450   -0.4890 C.3   135  ALA135      0.1597
     57  C         11.6070   54.3950    0.6820 C.2   135  ALA135      0.2287
     58  O         11.9010   54.5430    1.8440 O.2   135  ALA135     -0.2864
     59  CB        12.2400   56.0540   -1.0510 C.3   135  ALA135      0.0319
     60  N         19.7480   48.6560   -4.5400 N.3   181  LEU181     -0.1245
     61  CA        19.8740   49.8930   -5.3460 C.3   181  LEU181      0.1561
     62  C         20.8930   49.7670   -6.4430 C.2   181  LEU181      0.2260
     63  O         20.6640   50.2630   -7.5430 O.2   181  LEU181     -0.2867
     64  CB        20.2180   51.0200   -4.3940 C.3   181  LEU181      0.0270
     65  CG        20.2800   52.4440   -4.9510 C.3   181  LEU181      0.0019
     66  CD1       18.9180   52.8380   -5.4880 C.3   181  LEU181      0.0001
     67  CD2       20.7910   53.3720   -3.8360 C.3   181  LEU181      0.0001
     68  N         19.5130   50.1580  -10.1800 N.3   187  ALA187     -0.1245
     69  CA        20.2890   50.8700  -11.2110 C.3   187  ALA187      0.1562
     70  C         21.0700   49.9580  -12.1360 C.2   187  ALA187      0.2260
     71  O         21.4900   50.4540  -13.2000 O.2   187  ALA187     -0.2867
     72  CB        21.2120   51.8690  -10.5120 C.3   187  ALA187      0.0290
     73  N         24.0750   48.6160  -11.9310 N.3   189  ILE189     -0.1245
     74  CA        25.4900   48.9630  -11.8280 C.3   189  ILE189      0.1561
     75  C         26.3690   47.7410  -11.5710 C.2   189  ILE189      0.2260
     76  O         27.5220   47.6050  -12.0310 O.2   189  ILE189     -0.2867
     77  CB        25.6880   49.9830  -10.6790 C.3   189  ILE189      0.0252
     78  CG1       24.8420   51.2480  -10.8210 C.3   189  ILE189      0.0019
     79  CG2       27.1540   50.3280  -10.5220 C.3   189  ILE189      0.0019
     80  CD1       24.9930   52.2040   -9.6530 C.3   189  ILE189      0.0001
@<TRIPOS>BOND
     1     4     3    2
     2     3     2    1
     3     2     1    1
     4     9    10    1
     5     9     6    1
     6     5     6    1
     7    12    10   ar
     8    12    14   ar
     9    10    11   ar
    10    11    13   ar
    11    14    15   ar
    12     6     7    1
    13    15    13   ar
    14    15    16    1
    15    22    21    1
    16    71    70    2
    17    17     7   am
    18    17    18    1
    19     7     8    2
    20    21    18    1
    21    70    69    1
    22    76    75    2
    23    73    74    1
    24    18    19    1
    25    74    75    1
    26    74    77    1
    27    69    72    1
    28    69    68    1
    29    78    77    1
    30    78    80    1
    31    77    79    1
    32    19    20    2
    33    32    33   ar
    34    32    30   ar
    35    33    31   ar
    36    30    28   ar
    37    31    29   ar
    38    28    29   ar
    39    28    27    1
    40    23    24    1
    41    63    62    2
    42    27    24    1
    43    40    38    1
    44    24    25    1
    45    62    61    1
    46    34    25   am
    47    34    35    1
    48    38    35    1
    49    38    39    1
    50    25    26    2
    51    66    65    1
    52    61    60    1
    53    61    64    1
    54    65    64    1
    55    65    67    1
    56    35    36    1
    57    36    37    2
    58    45    46    1
    59    45    42    1
    60    41    42    1
    61    46    47   ar
    62    46    48   ar
    63    47    49   ar
    64    42    43    1
    65    48    51   ar
    66    48    50   ar
    67    51    53   ar
    68    49    50   ar
    69    50    52   ar
    70    55    43   am
    71    55    56    1
    72    53    54   ar
    73    43    44    2
    74    59    56    1
    75    52    54   ar
    76    56    57    1
    77    57    58    2
