@<TRIPOS>MOLECULE
tmp/1m0lA03.pdb
 88 85 0 0 0
SMALL
GASTEIGER

@<TRIPOS>ATOM
      1  N         12.7300   49.4040  -18.1550 N.3    68  GLY68      -0.1225
      2  CA        13.7870   49.8910  -19.0350 C.3    68  GLY68       0.1811
      3  C         13.8250   49.2140  -20.3950 C.2    68  GLY68       0.2280
      4  O         14.8970   49.0480  -21.0020 O.2    68  GLY68      -0.2866
      5  N         10.1620   52.0090  -14.4810 N.3   127  TYR127     -0.1227
      6  CA        11.4730   52.0400  -13.8330 C.3   127  TYR127      0.1736
      7  C         11.6070   53.0730  -12.7380 C.2   127  TYR127      0.2596
      8  O         12.0500   52.7810  -11.6240 O.2   127  TYR127     -0.2718
      9  CB        12.5330   52.3060  -14.9050 C.3   127  TYR127      0.0548
     10  CG        13.9590   52.2480  -14.4310 C.ar  127  TYR127     -0.0200
     11  CD1       14.5400   51.0480  -14.0150 C.ar  127  TYR127     -0.0009
     12  CD2       14.7330   53.4020  -14.4220 C.ar  127  TYR127     -0.0009
     13  CE1       15.8620   51.0010  -13.5820 C.ar  127  TYR127      0.0417
     14  CE2       16.0490   53.3580  -13.9970 C.ar  127  TYR127      0.0417
     15  CZ        16.6010   52.1660  -13.5870 C.ar  127  TYR127      0.1957
     16  OH        17.9140   52.1610  -13.1760 O.3   127  TYR127     -0.2866
     17  N         11.2780   54.3660  -12.9750 N.am  128  SER128     -0.1952
     18  CA        11.4090   55.3330  -11.8900 C.3   128  SER128      0.1924
     19  C         10.6180   54.9790  -10.6410 C.2   128  SER128      0.2314
     20  O         10.9680   55.2520   -9.5040 O.2   128  SER128     -0.2863
     21  CB        10.9200   56.7330  -12.3110 C.3   128  SER128      0.2116
     22  OG        11.6140   57.1090  -13.4860 O.3   128  SER128     -0.2180
     23  N         12.0000   52.8580   -7.4980 N.3   131  PHE131     -0.1227
     24  CA        12.7970   53.4400   -6.4320 C.3   131  PHE131      0.1736
     25  C         11.9390   54.2190   -5.4450 C.2   131  PHE131      0.2595
     26  O         12.3420   54.4770   -4.3520 O.2   131  PHE131     -0.2718
     27  CB        13.7990   54.3840   -7.1150 C.3   131  PHE131      0.0547
     28  CG        14.6970   53.6940   -8.1520 C.ar  131  PHE131     -0.0202
     29  CD1       15.8090   52.9900   -7.6530 C.ar  131  PHE131     -0.0042
     30  CD2       14.4840   53.7390   -9.4940 C.ar  131  PHE131     -0.0042
     31  CE1       16.6500   52.3640   -8.5770 C.ar  131  PHE131     -0.0003
     32  CE2       15.3050   53.1420  -10.4320 C.ar  131  PHE131     -0.0003
     33  CZ        16.4180   52.4470   -9.9210 C.ar  131  PHE131     -0.0000
     34  N         10.7060   54.5720   -5.9020 N.am  132  VAL132     -0.1980
     35  CA         9.7630   55.0470   -4.9040 C.3   132  VAL132      0.1595
     36  C          9.4980   53.9370   -3.8730 C.2   132  VAL132      0.2287
     37  O          9.5410   54.1860   -2.7180 O.2   132  VAL132     -0.2864
     38  CB         8.4360   55.4960   -5.5350 C.3   132  VAL132      0.0276
     39  CG1        7.3960   55.9180   -4.4910 C.3   132  VAL132      0.0022
     40  CG2        8.6800   56.6760   -6.4880 C.3   132  VAL132      0.0022
     41  N         11.4310   51.3870   -3.3150 N.3   134  TRP134     -0.1227
     42  CA        12.6690   51.2270   -2.5270 C.3   134  TRP134      0.1737
     43  C         12.7200   52.1650   -1.3400 C.2   134  TRP134      0.2595
     44  O         13.1490   51.8770   -0.2470 O.2   134  TRP134     -0.2718
     45  CB        13.8540   51.4100   -3.5150 C.3   134  TRP134      0.0564
     46  CG        15.1730   51.3000   -2.7880 C.ar  134  TRP134      0.0003
     47  CD1       15.9100   50.1560   -2.5630 C.ar  134  TRP134      0.0946
     48  CD2       15.8940   52.3700   -2.2120 C.ar  134  TRP134      0.0152
     49  NE1       17.0720   50.4600   -1.8650 N.ar  134  TRP134     -0.2442
     50  CE2       17.0780   51.8270   -1.6370 C.ar  134  TRP134      0.0810
     51  CE3       15.6700   53.7560   -2.1200 C.ar  134  TRP134      0.0012
     52  CZ2       18.0210   52.6230   -0.9770 C.ar  134  TRP134      0.0191
     53  CZ3       16.6070   54.5450   -1.4610 C.ar  134  TRP134      0.0001
     54  CH2       17.7720   53.9790   -0.8980 C.ar  134  TRP134      0.0015
     55  N         12.3060   53.4420   -1.5580 N.am  135  ALA135     -0.1966
     56  CA        12.4760   54.4260   -0.5010 C.3   135  ALA135      0.1728
     57  C         11.5470   54.2110    0.6670 C.2   135  ALA135      0.2616
     58  O         11.8260   54.3750    1.8190 O.2   135  ALA135     -0.2715
     59  CB        12.2110   55.8460   -1.0700 C.3   135  ALA135      0.0334
     60  N         10.2850   53.7750    0.3090 N.am  136  ILE136     -0.1977
     61  CA         9.3310   53.5140    1.3720 C.3   136  ILE136      0.1596
     62  C          9.7630   52.3080    2.2190 C.2   136  ILE136      0.2287
     63  O          9.6020   52.3290    3.3920 O.2   136  ILE136     -0.2864
     64  CB         7.9250   53.2800    0.7840 C.3   136  ILE136      0.0276
     65  CG1        7.2750   54.5430    0.1840 C.3   136  ILE136      0.0022
     66  CG2        7.0300   52.6740    1.8560 C.3   136  ILE136      0.0022
     67  CD1        6.2530   54.2630   -0.9010 C.3   136  ILE136      0.0001
     68  N         19.6610   48.4310   -4.5740 N.3   181  LEU181     -0.1245
     69  CA        19.8070   49.6710   -5.3510 C.3   181  LEU181      0.1561
     70  C         20.8310   49.5760   -6.4540 C.2   181  LEU181      0.2260
     71  O         20.5960   50.1120   -7.5330 O.2   181  LEU181     -0.2867
     72  CB        20.2050   50.7750   -4.3940 C.3   181  LEU181      0.0270
     73  CG        20.1780   52.2020   -4.9610 C.3   181  LEU181      0.0019
     74  CD1       18.7960   52.5610   -5.4800 C.3   181  LEU181      0.0001
     75  CD2       20.6440   53.1350   -3.8370 C.3   181  LEU181      0.0001
     76  N         19.4190   50.0160  -10.1020 N.3   187  ALA187     -0.1245
     77  CA        20.1590   50.6960  -11.1830 C.3   187  ALA187      0.1562
     78  C         20.9500   49.7900  -12.0950 C.2   187  ALA187      0.2260
     79  O         21.4100   50.2210  -13.1690 O.2   187  ALA187     -0.2867
     80  CB        21.0890   51.7230  -10.5300 C.3   187  ALA187      0.0290
     81  N         23.9470   48.4580  -11.8940 N.3   189  ILE189     -0.1245
     82  CA        25.3690   48.7850  -11.8740 C.3   189  ILE189      0.1561
     83  C         26.2570   47.5680  -11.6110 C.2   189  ILE189      0.2260
     84  O         27.3910   47.4250  -12.0880 O.2   189  ILE189     -0.2867
     85  CB        25.6700   49.8190  -10.7710 C.3   189  ILE189      0.0252
     86  CG1       25.0450   51.1950  -10.9930 C.3   189  ILE189      0.0019
     87  CG2       27.1710   49.9290  -10.5680 C.3   189  ILE189      0.0019
     88  CD1       24.8540   51.9680   -9.7020 C.3   189  ILE189      0.0001
@<TRIPOS>BOND
     1     4     3    2
     2     3     2    1
     3     2     1    1
     4     9    10    1
     5     9     6    1
     6     5     6    1
     7    10    12   ar
     8    10    11   ar
     9    12    14   ar
    10    11    13   ar
    11    14    15   ar
    12     6     7    1
    13    15    13   ar
    14    15    16    1
    15    22    21    1
    16    79    78    2
    17    17     7   am
    18    17    18    1
    19     7     8    2
    20    21    18    1
    21    78    77    1
    22    84    83    2
    23    81    82    1
    24    18    19    1
    25    82    83    1
    26    82    85    1
    27    77    80    1
    28    77    76    1
    29    86    85    1
    30    86    88    1
    31    85    87    1
    32    19    20    2
    33    32    33   ar
    34    32    30   ar
    35    33    31   ar
    36    30    28   ar
    37    31    29   ar
    38    28    29   ar
    39    28    27    1
    40    71    70    2
    41    23    24    1
    42    27    24    1
    43    40    38    1
    44    70    69    1
    45    24    25    1
    46    34    25   am
    47    34    35    1
    48    38    35    1
    49    38    39    1
    50    74    73    1
    51    25    26    2
    52    69    68    1
    53    69    72    1
    54    73    72    1
    55    73    75    1
    56    35    36    1
    57    36    37    2
    58    45    46    1
    59    45    42    1
    60    41    42    1
    61    46    47   ar
    62    46    48   ar
    63    47    49   ar
    64    42    43    1
    65    48    51   ar
    66    48    50   ar
    67    51    53   ar
    68    49    50   ar
    69    50    52   ar
    70    55    43   am
    71    55    56    1
    72    53    54   ar
    73    43    44    2
    74    59    56    1
    75    52    54   ar
    76    67    65    1
    77    56    57    1
    78    65    64    1
    79    60    57   am
    80    60    61    1
    81    57    58    2
    82    64    61    1
    83    64    66    1
    84    61    62    1
    85    62    63    2
