@<TRIPOS>MOLECULE
tmp/1m0nA00.pdb
 134 127 0 0 0
SMALL
GASTEIGER

@<TRIPOS>ATOM
      1  N         11.4090   44.2770   21.2080 N.3    50  GLN50      -0.1231
      2  CA        12.0170   45.6130   21.1970 C.3    50  GLN50       0.1698
      3  C         11.5520   46.2030   19.8620 C.2    50  GLN50       0.2592
      4  O         12.3490   46.4050   18.9530 O.2    50  GLN50      -0.2718
      5  CB        13.5370   45.5030   21.3070 C.3    50  GLN50       0.0381
      6  CG        14.2830   46.7350   21.7520 C.3    50  GLN50       0.0905
      7  CD        13.7470   47.3030   23.0110 C.2    50  GLN50       0.2608
      8  OE1       13.7060   46.6530   24.0300 O.2    50  GLN50      -0.2717
      9  NE2       13.4260   48.5410   22.9710 N.am   50  GLN50      -0.0878
     10  N         10.2340   46.4230   19.7250 N.am   51  MET51      -0.1979
     11  CA         9.6790   47.0040   18.4710 C.3    51  MET51       0.1605
     12  C         10.1030   46.2240   17.2280 C.2    51  MET51       0.2287
     13  O         10.5460   46.8400   16.2970 O.2    51  MET51      -0.2864
     14  CB        10.2950   48.3650   18.3180 C.3    51  MET51       0.0413
     15  CG        10.1070   49.2510   19.5180 C.3    51  MET51       0.0598
     16  SD         8.2650   49.5330   19.8880 S.3    51  MET51      -0.1393
     17  CE         8.1600   51.2020   20.2500 C.3    51  MET51       0.0692
     18  N         22.4120   44.0020   11.7530 N.3   108  THR108     -0.1203
     19  CA        21.7070   44.9790   12.6060 C.3   108  THR108      0.1994
     20  C         21.3220   46.3140   11.9590 C.2   108  THR108      0.2618
     21  O         21.9280   46.7470   10.9290 O.2   108  THR108     -0.2717
     22  CB        22.5040   45.2730   13.9690 C.3   108  THR108      0.1784
     23  OG1       23.6090   46.1250   13.6890 O.3   108  THR108     -0.2211
     24  CG2       23.0130   43.9490   14.6550 C.3   108  THR108      0.0376
     25  N         20.3810   47.0240   12.6200 N.am  109  GLY109     -0.1942
     26  CA        19.8950   48.3870   12.1720 C.3   109  GLY109      0.2014
     27  C         21.0180   49.4530   12.0680 C.2   109  GLY109      0.2638
     28  O         21.1010   50.1960   11.0800 O.2   109  GLY109     -0.2714
     29  N         21.8730   49.5130   13.1050 N.am  110  ALA110     -0.1977
     30  CA        23.0050   50.4440   13.1450 C.3   110  ALA110      0.1597
     31  C         23.9470   50.0560   12.0340 C.2   110  ALA110      0.2287
     32  O         24.4340   50.9050   11.3060 O.2   110  ALA110     -0.2864
     33  CB        23.6790   50.3410   14.5060 C.3   110  ALA110      0.0319
     34  N         22.4990   51.1480    8.9510 N.3   113  ASN113     -0.1240
     35  CA        22.7970   52.6250    8.7970 C.3   113  ASN113      0.1653
     36  C         24.2480   52.9860    8.5090 C.2   113  ASN113      0.2266
     37  O         24.5050   53.9300    7.7920 O.2   113  ASN113     -0.2867
     38  CB        22.2090   53.5290    9.9250 C.3   113  ASN113      0.1155
     39  CG        20.6670   53.4160   10.0470 C.2   113  ASN113      0.2627
     40  OD1       19.9620   53.5150    9.0330 O.2   113  ASN113     -0.2716
     41  ND2       20.1450   53.1960   11.2880 N.am  113  ASN113     -0.0877
     42  N         17.2590   58.5730   16.3520 N.3   136  TRP136     -0.1227
     43  CA        17.9700   57.3680   16.8490 C.3   136  TRP136      0.1737
     44  C         18.3280   56.5070   15.6830 C.2   136  TRP136      0.2595
     45  O         17.4130   55.9690   15.0200 O.2   136  TRP136     -0.2718
     46  CB        17.1390   56.4690   17.7390 C.3   136  TRP136      0.0564
     47  CG        17.9320   55.3300   18.3050 C.ar  136  TRP136      0.0003
     48  CD1       18.0700   54.0680   17.7910 C.ar  136  TRP136      0.0946
     49  CD2       18.7640   55.3770   19.4660 C.ar  136  TRP136      0.0152
     50  NE1       18.9530   53.3130   18.5620 N.ar  136  TRP136     -0.2442
     51  CE2       19.3670   54.0900   19.6110 C.ar  136  TRP136      0.0810
     52  CE3       19.0830   56.3930   20.4030 C.ar  136  TRP136      0.0012
     53  CZ2       20.2140   53.7660   20.7060 C.ar  136  TRP136      0.0191
     54  CZ3       19.9720   56.0790   21.4470 C.ar  136  TRP136      0.0001
     55  CH2       20.4840   54.7560   21.6140 C.ar  136  TRP136      0.0015
     56  N         19.6270   56.2450   15.4950 N.am  137  HIS137     -0.1961
     57  CA        20.0530   55.3440   14.4200 C.3   137  HIS137      0.1787
     58  C         20.8890   54.1180   14.8300 C.2   137  HIS137      0.2621
     59  O         20.9910   53.1470   14.0970 O.2   137  HIS137     -0.2715
     60  CB        20.7040   56.1650   13.2990 C.3   137  HIS137      0.0785
     61  CG        19.8000   57.2300   12.7270 C.ar  137  HIS137      0.0821
     62  ND1       18.6850   56.9270   11.9470 N.ar  137  HIS137     -0.2267
     63  CD2       19.7950   58.5830   12.8880 C.ar  137  HIS137      0.1154
     64  CE1       18.0780   58.0570   11.6060 C.ar  137  HIS137      0.1986
     65  NE2       18.7230   59.0720   12.1740 N.ar  137  HIS137     -0.2212
     66  N         21.3660   54.1090   16.0610 N.am  138  GLY138     -0.1940
     67  CA        22.1380   52.9810   16.5410 C.3   138  GLY138      0.2014
     68  C         23.2400   53.4240   17.5350 C.2   138  GLY138      0.2638
     69  O         23.4860   54.6090   17.7660 O.2   138  GLY138     -0.2714
     70  N         23.8830   52.4460   18.1330 N.am  139  MET139     -0.1976
     71  CA        24.9280   52.7010   19.1290 C.3   139  MET139      0.1605
     72  C         26.3090   52.8510   18.5330 C.2   139  MET139      0.2287
     73  O         27.1690   53.3240   19.2060 O.2   139  MET139     -0.2864
     74  CB        24.9920   51.5020   20.1000 C.3   139  MET139      0.0413
     75  CG        23.7300   51.2910   20.9530 C.3   139  MET139      0.0598
     76  SD        23.4530   52.7630   22.0840 S.3   139  MET139     -0.1393
     77  CE        25.2500   53.4400   22.5130 C.3   139  MET139      0.0692
     78  N         14.3630   59.2490    9.9980 N.3   208  GLU208     -0.1245
     79  CA        13.3310   58.2220   10.2980 C.3   208  GLU208      0.1567
     80  C         12.0010   58.8470    9.7460 C.2   208  GLU208      0.2260
     81  O         11.7250   60.0350    9.9620 O.2   208  GLU208     -0.2867
     82  CB        13.1720   58.0310   11.8090 C.3   208  GLU208      0.0388
     83  CG        14.1670   57.1360   12.4990 C.3   208  GLU208      0.1160
     84  CD        14.2400   57.4710   13.9660 C.2   208  GLU208      0.3649
     85  OE1       13.5770   56.7510   14.7630 O.co2 208  GLU208     -0.2457
     86  OE2       14.8060   58.5660   14.2830 O.co2 208  GLU208     -0.2457
     87  N         12.0110   56.5620   18.8320 N.3   213  SER213     -0.1217
     88  CA        12.6700   56.7460   20.0390 C.3   213  SER213      0.1889
     89  C         12.5150   58.2180   20.3930 C.2   213  SER213      0.2288
     90  O         12.5100   58.5990   21.5850 O.2   213  SER213     -0.2866
     91  CB        14.1610   56.3910   19.8420 C.3   213  SER213      0.2089
     92  OG        14.3910   54.9850   20.0640 O.3   213  SER213     -0.2183
     93  N         15.7820   55.9010    7.2180 N.3   241  ASP241     -0.1239
     94  CA        16.0050   54.7960    8.1810 C.3   241  ASP241      0.1674
     95  C         14.6110   54.1570    8.5050 C.2   241  ASP241      0.2266
     96  O         13.8790   54.7260    9.2740 O.2   241  ASP241     -0.2867
     97  CB        16.7010   55.4080    9.4970 C.3   241  ASP241      0.1410
     98  CG        17.0170   54.3410   10.5600 C.2   241  ASP241      0.3668
     99  OD1       16.4760   53.1970   10.3600 O.co2 241  ASP241     -0.2456
    100  OD2       17.7960   54.6210   11.5510 O.co2 241  ASP241     -0.2456
    101  N         13.9300   51.1340   10.0640 N.3   243  ALA243     -0.1231
    102  CA        14.1080   50.0080   11.0260 C.3   243  ALA243      0.1694
    103  C         12.7720   49.5000   11.7370 C.2   243  ALA243      0.2591
    104  O         12.5640   48.2950   11.9940 O.2   243  ALA243     -0.2718
    105  CB        15.2090   50.3660   12.0550 C.3   243  ALA243      0.0304
    106  N         11.8960   50.4500   12.0310 N.am  244  GLN244     -0.1979
    107  CA        10.6580   50.1990   12.7280 C.3   244  GLN244      0.1601
    108  C          9.4600   50.5890   11.8880 C.2   244  GLN244      0.2287
    109  O          8.3670   50.1190   12.1540 O.2   244  GLN244     -0.2864
    110  CB        10.5900   51.1360   13.9830 C.3   244  GLN244      0.0394
    111  CG        11.6380   50.8860   14.9680 C.3   244  GLN244      0.0908
    112  CD        11.4330   51.5850   16.2780 C.2   244  GLN244      0.2608
    113  OE1       10.2870   51.7770   16.7730 O.2   244  GLN244     -0.2717
    114  NE2       12.5400   51.9450   16.8910 N.am  244  GLN244     -0.0878
    115  N         14.7860   45.9510   12.0970 N.3   270  LYS270     -0.1245
    116  CA        13.9630   45.4940   13.2270 C.3   270  LYS270      0.1561
    117  C         12.8300   44.6910   12.8200 C.2   270  LYS270      0.2260
    118  O         12.7330   43.5130   13.1590 O.2   270  LYS270     -0.2867
    119  CB        13.4950   46.6860   14.0830 C.3   270  LYS270      0.0271
    120  CG        14.6930   47.5950   14.6900 C.3   270  LYS270      0.0035
    121  CD        14.2590   49.0490   15.1920 C.3   270  LYS270      0.0206
    122  CE        13.3330   48.9890   16.4660 C.3   270  LYS270      0.1093
    123  NZ        13.8700   48.1020   17.5090 N.3   270  LYS270     -0.1314
    124  N          4.9650   54.5070   23.5550 N.3   404  ARG404     -0.1245
    125  CA         5.2140   54.0090   22.1890 C.3   404  ARG404      0.1563
    126  C          4.4340   52.6980   22.0700 C.2   404  ARG404      0.2260
    127  O          4.7960   51.6940   22.6090 O.2   404  ARG404     -0.2867
    128  CB         6.7830   53.8440   21.8810 C.3   404  ARG404      0.0307
    129  CG         7.6000   55.2360   21.9740 C.3   404  ARG404      0.0489
    130  CD         9.0440   55.1610   21.5510 C.3   404  ARG404      0.2205
    131  NE         9.7670   54.0150   22.1200 N.pl3 404  ARG404     -0.0865
    132  CZ        10.7800   53.3880   21.5150 C.cat 404  ARG404      0.5346
    133  NH1       11.1430   53.7430   20.3150 N.pl3 404  ARG404      0.1354
    134  NH2       11.4500   52.4150   22.1160 N.pl3 404  ARG404      0.1354
@<TRIPOS>BOND
     1    93    94    1
     2    37    36    2
     3    94    95    1
     4    94    97    1
     5    95    96    2
     6    36    35    1
     7    35    34    1
     8    35    38    1
     9    40    39    2
    10    97    98    1
    11    80    81    2
    12    80    79    1
    13    38    39    1
    14    78    79    1
    15    39    41   am
    16   101   102    1
    17    79    82    1
    18    99    98   ar
    19    98   100   ar
    20    21    20    2
    21   102   103    1
    22   102   105    1
    23    28    27    2
    24    32    31    2
    25    64    62   ar
    26    64    65   ar
    27   103   104    2
    28   103   106   am
    29    18    19    1
    30    82    83    1
    31   108   109    2
    32   108   107    1
    33    62    61   ar
    34    20    19    1
    35    20    25   am
    36   106   107    1
    37    31    30    1
    38    27    26    1
    39    27    29   am
    40   115   116    1
    41    26    25    1
    42    65    63   ar
    43    83    84    1
    44    19    22    1
    45    61    63   ar
    46    61    60    1
    47   107   110    1
    48   117   118    2
    49   117   116    1
    50    29    30    1
    51    30    33    1
    52   116   119    1
    53    60    57    1
    54    23    22    1
    55    84    86   ar
    56    84    85   ar
    57    22    24    1
    58   110   111    1
    59   119   120    1
    60    59    58    2
    61    57    58    1
    62    57    56    1
    63   120   121    1
    64    58    66   am
    65   111   112    1
    66    45    44    2
    67   121   122    1
    68    56    44   am
    69    44    43    1
    70    66    67    1
    71   112   113    2
    72   112   114   am
    73    13    12    2
    74    42    43    1
    75   122   123    1
    76    67    68    1
    77    43    46    1
    78    12    11    1
    79    68    69    2
    80    68    70   am
    81    46    47    1
    82    48    47   ar
    83    48    50   ar
    84    70    71    1
    85    47    49   ar
    86    14    11    1
    87    14    15    1
    88    11    10    1
    89    72    71    1
    90    72    73    2
    91    50    51   ar
    92    87    88    1
    93     4     3    2
    94    71    74    1
    95    49    51   ar
    96    49    52   ar
    97    15    16    1
    98    51    53   ar
    99    10     3   am
   100    91    88    1
   101    91    92    1
   102     3     2    1
   103    16    17    1
   104    88    89    1
   105    74    75    1
   106   133   132    1
   107    89    90    2
   108    52    54   ar
   109    53    55   ar
   110    75    76    1
   111     2     1    1
   112     2     5    1
   113     5     6    1
   114    54    55   ar
   115   132   134    1
   116   132   131    2
   117   130   129    1
   118   130   131    1
   119     6     7    1
   120   128   129    1
   121   128   125    1
   122   126   125    1
   123   126   127    2
   124    76    77    1
   125   125   124    1
   126     9     7   am
   127     7     8    2
