@<TRIPOS>MOLECULE
tmp/1m0oA00.pdb
 146 139 0 0 0
SMALL
GASTEIGER

@<TRIPOS>ATOM
      1  N         11.5760   44.7110   21.5350 N.3    50  GLN50      -0.1231
      2  CA        12.2190   45.9970   21.4330 C.3    50  GLN50       0.1698
      3  C         11.8010   46.5940   20.0770 C.2    50  GLN50       0.2592
      4  O         12.6580   46.7650   19.1970 O.2    50  GLN50      -0.2718
      5  CB        13.7510   45.8280   21.5100 C.3    50  GLN50       0.0381
      6  CG        14.5120   47.1250   21.8680 C.3    50  GLN50       0.0905
      7  CD        13.9540   47.8390   23.0720 C.2    50  GLN50       0.2608
      8  OE1       13.8910   47.2720   24.1440 O.2    50  GLN50      -0.2717
      9  NE2       13.6480   49.1050   22.9220 N.am   50  GLN50      -0.0878
     10  N         10.4780   46.8070   19.8710 N.am   51  MET51      -0.1979
     11  CA         9.9160   47.3820   18.5780 C.3    51  MET51       0.1605
     12  C         10.2470   46.5780   17.3060 C.2    51  MET51       0.2287
     13  O         10.5070   47.1700   16.2830 O.2    51  MET51      -0.2864
     14  CB        10.4740   48.7930   18.3220 C.3    51  MET51       0.0413
     15  CG        10.6650   49.7100   19.5620 C.3    51  MET51       0.0598
     16  SD         9.0230   50.0520   20.3210 S.3    51  MET51      -0.1393
     17  CE         8.6920   51.7160   19.7700 C.3    51  MET51       0.0692
     18  N         22.5370   44.5030   12.0630 N.3   108  THR108     -0.1203
     19  CA        21.8210   45.4540   12.9180 C.3   108  THR108      0.1994
     20  C         21.4300   46.7960   12.3000 C.2   108  THR108      0.2618
     21  O         21.9580   47.2250   11.2210 O.2   108  THR108     -0.2717
     22  CB        22.6310   45.7720   14.2140 C.3   108  THR108      0.1784
     23  OG1       23.7200   46.6400   13.8810 O.3   108  THR108     -0.2211
     24  CG2       23.1730   44.5130   14.8020 C.3   108  THR108      0.0376
     25  N         20.5780   47.5120   13.0590 N.am  109  GLY109     -0.1942
     26  CA        20.1250   48.8370   12.6770 C.3   109  GLY109      0.2014
     27  C         21.2860   49.8300   12.5540 C.2   109  GLY109      0.2638
     28  O         21.4120   50.4920   11.5590 O.2   109  GLY109     -0.2714
     29  N         22.1490   49.9010   13.5580 N.am  110  ALA110     -0.1977
     30  CA        23.2550   50.8240   13.5100 C.3   110  ALA110      0.1597
     31  C         24.1710   50.4680   12.3750 C.2   110  ALA110      0.2287
     32  O         24.6850   51.3340   11.7050 O.2   110  ALA110     -0.2864
     33  CB        24.0280   50.8220   14.8370 C.3   110  ALA110      0.0319
     34  N         22.8710   51.7130    9.2470 N.3   113  ASN113     -0.1240
     35  CA        23.1060   53.1490    9.0710 C.3   113  ASN113      0.1653
     36  C         24.5580   53.4990    8.7700 C.2   113  ASN113      0.2266
     37  O         24.8420   54.4420    7.9940 O.2   113  ASN113     -0.2867
     38  CB        22.5100   53.9720   10.2290 C.3   113  ASN113      0.1155
     39  CG        21.0010   53.9160   10.2760 C.2   113  ASN113      0.2627
     40  OD1       20.3520   54.1080    9.2440 O.2   113  ASN113     -0.2716
     41  ND2       20.4030   53.6770   11.5080 N.am  113  ASN113     -0.0877
     42  N         17.6500   59.1860   16.6140 N.3   136  TRP136     -0.1227
     43  CA        18.3590   58.0270   17.1310 C.3   136  TRP136      0.1737
     44  C         18.6570   57.1060   15.9860 C.2   136  TRP136      0.2595
     45  O         17.7500   56.5390   15.4110 O.2   136  TRP136     -0.2718
     46  CB        17.5510   57.2280   18.1450 C.3   136  TRP136      0.0564
     47  CG        18.3150   56.0730   18.6930 C.ar  136  TRP136      0.0003
     48  CD1       18.6160   54.8910   18.0690 C.ar  136  TRP136      0.0946
     49  CD2       18.9420   56.0420   19.9370 C.ar  136  TRP136      0.0152
     50  NE1       19.3740   54.1010   18.8920 N.ar  136  TRP136     -0.2442
     51  CE2       19.5400   54.7510   20.0750 C.ar  136  TRP136      0.0810
     52  CE3       19.0600   56.9790   20.9920 C.ar  136  TRP136      0.0012
     53  CZ2       20.2140   54.3520   21.2250 C.ar  136  TRP136      0.0191
     54  CZ3       19.7080   56.5920   22.1550 C.ar  136  TRP136      0.0001
     55  CH2       20.2930   55.2820   22.2640 C.ar  136  TRP136      0.0015
     56  N         19.9260   56.9470   15.6710 N.am  137  HIS137     -0.1961
     57  CA        20.3050   56.0470   14.6050 C.3   137  HIS137      0.1787
     58  C         21.2050   54.8580   15.0430 C.2   137  HIS137      0.2621
     59  O         21.3960   53.9350   14.2900 O.2   137  HIS137     -0.2715
     60  CB        20.9110   56.8530   13.4340 C.3   137  HIS137      0.0785
     61  CG        19.9840   57.8850   12.8770 C.ar  137  HIS137      0.0821
     62  ND1       18.8210   57.5470   12.2310 N.ar  137  HIS137     -0.2267
     63  CD2       19.9800   59.2400   12.9780 C.ar  137  HIS137      0.1154
     64  CE1       18.1600   58.6470   11.8990 C.ar  137  HIS137      0.1986
     65  NE2       18.8520   59.6870   12.3250 N.ar  137  HIS137     -0.2212
     66  N         21.6480   54.8070   16.2960 N.am  138  GLY138     -0.1940
     67  CA        22.4620   53.6550   16.7200 C.3   138  GLY138      0.2014
     68  C         23.5730   54.0420   17.6690 C.2   138  GLY138      0.2638
     69  O         23.8990   55.2330   17.8530 O.2   138  GLY138     -0.2714
     70  N         24.1890   53.0420   18.2680 N.am  139  MET139     -0.1976
     71  CA        25.2870   53.2790   19.2710 C.3   139  MET139      0.1605
     72  C         26.6680   53.2710   18.6910 C.2   139  MET139      0.2287
     73  O         27.5560   53.5800   19.4250 O.2   139  MET139     -0.2864
     74  CB        25.2930   52.1560   20.3910 C.3   139  MET139      0.0413
     75  CG        23.9520   52.0060   21.2360 C.3   139  MET139      0.0598
     76  SD        23.7240   53.5170   22.2520 S.3   139  MET139     -0.1393
     77  CE        25.3150   54.1300   22.5300 C.3   139  MET139      0.0692
     78  N         14.6690   59.7880   10.2230 N.3   208  GLU208     -0.1245
     79  CA        13.5880   58.8260   10.4820 C.3   208  GLU208      0.1567
     80  C         12.2690   59.5390   10.0070 C.2   208  GLU208      0.2260
     81  O         12.1020   60.7500   10.2280 O.2   208  GLU208     -0.2867
     82  CB        13.4730   58.5720   11.9670 C.3   208  GLU208      0.0388
     83  CG        14.7080   57.9240   12.6850 C.3   208  GLU208      0.1160
     84  CD        14.6190   58.2030   14.2070 C.2   208  GLU208      0.3649
     85  OE1       13.7430   57.6310   14.9190 O.co2 208  GLU208     -0.2457
     86  OE2       15.2750   59.1630   14.6450 O.co2 208  GLU208     -0.2457
     87  N         11.0850   58.1120   16.5230 N.3   212  SER212     -0.1202
     88  CA        10.4960   57.2610   17.5030 C.3   212  SER212      0.2020
     89  C         10.9900   57.5700   18.8740 C.2   212  SER212      0.2619
     90  O         10.2410   57.9260   19.7690 O.2   212  SER212     -0.2717
     91  CB        10.7860   55.7970   17.1720 C.3   212  SER212      0.2103
     92  OG        10.1150   54.9280   18.0520 O.3   212  SER212     -0.2182
     93  N         12.2580   57.3800   19.0740 N.am  213  SER213     -0.1951
     94  CA        12.8070   57.6370   20.3850 C.3   213  SER213      0.1924
     95  C         12.6810   59.1420   20.6020 C.2   213  SER213      0.2314
     96  O         12.6600   59.6020   21.6980 O.2   213  SER213     -0.2863
     97  CB        14.2970   57.2040   20.4120 C.3   213  SER213      0.2116
     98  OG        15.1120   58.1760   19.7230 O.3   213  SER213     -0.2180
     99  N         15.9890   56.3200    7.5210 N.3   241  ASP241     -0.1239
    100  CA        16.1980   55.2390    8.4230 C.3   241  ASP241      0.1674
    101  C         14.7810   54.7730    8.7960 C.2   241  ASP241      0.2266
    102  O         14.0520   55.4610    9.5950 O.2   241  ASP241     -0.2867
    103  CB        16.9960   55.7980    9.6790 C.3   241  ASP241      0.1410
    104  CG        17.2040   54.7190   10.7620 C.2   241  ASP241      0.3668
    105  OD1       16.7000   53.5800   10.5480 O.co2 241  ASP241     -0.2456
    106  OD2       17.8130   55.0140   11.8240 O.co2 241  ASP241     -0.2456
    107  N         14.0410   51.7510   10.2630 N.3   243  ALA243     -0.1231
    108  CA        14.1210   50.6430   11.2370 C.3   243  ALA243      0.1694
    109  C         12.7960   50.3620   11.9620 C.2   243  ALA243      0.2591
    110  O         12.4490   49.2010   12.2290 O.2   243  ALA243     -0.2718
    111  CB        15.1710   50.9530   12.2780 C.3   243  ALA243      0.0304
    112  N         12.0940   51.4240   12.3830 N.am  244  GLN244     -0.1979
    113  CA        10.8340   51.1940   13.1120 C.3   244  GLN244      0.1601
    114  C          9.6740   51.4350   12.2590 C.2   244  GLN244      0.2287
    115  O          8.6180   51.0330   12.5870 O.2   244  GLN244     -0.2864
    116  CB        10.7100   52.1120   14.3250 C.3   244  GLN244      0.0394
    117  CG        11.9200   52.1110   15.1770 C.3   244  GLN244      0.0908
    118  CD        11.6540   52.3980   16.5980 C.2   244  GLN244      0.2608
    119  OE1       10.5180   52.3450   17.0340 O.2   244  GLN244     -0.2717
    120  NE2       12.7250   52.6750   17.3710 N.am  244  GLN244     -0.0878
    121  N         15.7740   47.3320    9.4290 N.3   269  SER269     -0.1202
    122  CA        16.3590   46.4210   10.3770 C.3   269  SER269      0.2020
    123  C         15.3710   45.7400   11.3080 C.2   269  SER269      0.2618
    124  O         14.9930   44.5540   11.0650 O.2   269  SER269     -0.2717
    125  CB        17.4630   47.1260   11.1810 C.3   269  SER269      0.2103
    126  OG        16.9810   48.3880   11.6950 O.3   269  SER269     -0.2182
    127  N         14.9120   46.4560   12.3560 N.am  270  LYS270     -0.1979
    128  CA        14.0490   45.8360   13.4160 C.3   270  LYS270      0.1596
    129  C         12.9310   44.9180   12.9760 C.2   270  LYS270      0.2287
    130  O         12.9280   43.7190   13.2600 O.2   270  LYS270     -0.2864
    131  CB        13.4890   46.8750   14.3460 C.3   270  LYS270      0.0298
    132  CG        14.4830   47.8620   14.8510 C.3   270  LYS270      0.0038
    133  CD        13.7050   49.0150   15.4910 C.3   270  LYS270      0.0206
    134  CE        14.4710   49.6460   16.6060 C.3   270  LYS270      0.1093
    135  NZ        14.2610   48.8790   17.8360 N.3   270  LYS270     -0.1314
    136  N          5.2900   55.0100   23.9160 N.3   404  ARG404     -0.1245
    137  CA         5.5220   54.5330   22.5590 C.3   404  ARG404      0.1563
    138  C          4.7640   53.2220   22.4330 C.2   404  ARG404      0.2260
    139  O          5.1470   52.2070   22.9960 O.2   404  ARG404     -0.2867
    140  CB         7.0390   54.3380   22.3070 C.3   404  ARG404      0.0307
    141  CG         7.8350   55.6820   22.3230 C.3   404  ARG404      0.0489
    142  CD         9.2600   55.5860   21.7340 C.3   404  ARG404      0.2205
    143  NE        10.1100   54.5660   22.3950 N.pl3 404  ARG404     -0.0865
    144  CZ        11.1970   53.9770   21.8460 C.cat 404  ARG404      0.5346
    145  NH1       11.5880   54.2780   20.6270 N.pl3 404  ARG404      0.1354
    146  NH2       11.8750   53.0610   22.5250 N.pl3 404  ARG404      0.1354
@<TRIPOS>BOND
     1    99   100    1
     2    37    36    2
     3   100   101    1
     4   100   103    1
     5    36    35    1
     6   101   102    2
     7    35    34    1
     8    35    38    1
     9    40    39    2
    10   121   122    1
    11   103   104    1
    12    80    81    2
    13    80    79    1
    14    78    79    1
    15    38    39    1
    16   107   108    1
    17    39    41   am
    18   122   125    1
    19   122   123    1
    20    79    82    1
    21   105   104   ar
    22   104   106   ar
    23   124   123    2
    24   125   126    1
    25    21    20    2
    26   108   109    1
    27   108   111    1
    28   123   127   am
    29    28    27    2
    30    32    31    2
    31    64    62   ar
    32    64    65   ar
    33   109   110    2
    34   109   112   am
    35    82    83    1
    36    18    19    1
    37    62    61   ar
    38   114   115    2
    39   114   113    1
    40    20    19    1
    41    20    25   am
    42    65    63   ar
    43   127   128    1
    44    31    30    1
    45   112   113    1
    46    27    26    1
    47    27    29   am
    48    26    25    1
    49    83    84    1
    50    61    63   ar
    51    61    60    1
    52    19    22    1
    53   129   130    2
    54   129   128    1
    55   113   116    1
    56   128   131    1
    57    60    57    1
    58    30    29    1
    59    30    33    1
    60    23    22    1
    61    84    86   ar
    62    84    85   ar
    63    22    24    1
    64    59    58    2
    65   116   117    1
    66   131   132    1
    67    57    58    1
    68    57    56    1
    69   132   133    1
    70    58    66   am
    71   117   118    1
    72    45    44    2
    73   133   134    1
    74    56    44   am
    75    44    43    1
    76    13    12    2
    77    66    67    1
    78    87    88    1
    79   118   119    2
    80   118   120   am
    81   134   135    1
    82    42    43    1
    83    67    68    1
    84    43    46    1
    85    91    88    1
    86    91    92    1
    87    12    11    1
    88    88    89    1
    89    68    69    2
    90    68    70   am
    91    48    47   ar
    92    48    50   ar
    93    46    47    1
    94    70    71    1
    95    14    11    1
    96    14    15    1
    97    11    10    1
    98    72    71    1
    99    72    73    2
   100    47    49   ar
   101    89    93   am
   102    89    90    2
   103    50    51   ar
   104    93    94    1
   105     4     3    2
   106    71    74    1
   107    15    16    1
   108    98    97    1
   109    17    16    1
   110    10     3   am
   111    49    51   ar
   112    49    52   ar
   113    51    53   ar
   114     3     2    1
   115    94    97    1
   116    94    95    1
   117    74    75    1
   118    95    96    2
   119   145   144    1
   120    52    54   ar
   121    53    55   ar
   122    75    76    1
   123     2     5    1
   124     2     1    1
   125     5     6    1
   126   142   141    1
   127   142   143    1
   128   144   143    2
   129   144   146    1
   130     6     7    1
   131    54    55   ar
   132    76    77    1
   133   140   141    1
   134   140   137    1
   135   138   137    1
   136   138   139    2
   137   137   136    1
   138     9     7   am
   139     7     8    2
