@<TRIPOS>MOLECULE
tmp/1m0pA00.pdb
 165 156 0 0 0
SMALL
GASTEIGER

@<TRIPOS>ATOM
      1  N         11.2660   43.9350   21.2770 N.3    50  GLN50      -0.1231
      2  CA        11.9440   45.2110   21.1990 C.3    50  GLN50       0.1698
      3  C         11.4860   45.8590   19.8610 C.2    50  GLN50       0.2592
      4  O         12.3120   46.1960   18.9950 O.2    50  GLN50      -0.2718
      5  CB        13.4470   45.0180   21.2240 C.3    50  GLN50       0.0381
      6  CG        14.3200   46.2510   21.6190 C.3    50  GLN50       0.0905
      7  CD        13.8390   46.9200   22.8340 C.2    50  GLN50       0.2608
      8  OE1       13.7500   46.3080   23.8930 O.2    50  GLN50      -0.2717
      9  NE2       13.5550   48.2010   22.7220 N.am   50  GLN50      -0.0878
     10  N         10.1670   46.0060   19.6830 N.am   51  MET51      -0.1979
     11  CA         9.6260   46.6130   18.4690 C.3    51  MET51       0.1605
     12  C          9.9790   45.8860   17.1810 C.2    51  MET51       0.2287
     13  O         10.1040   46.5270   16.1550 O.2    51  MET51      -0.2864
     14  CB        10.1510   48.0160   18.3730 C.3    51  MET51       0.0413
     15  CG        10.0680   48.7950   19.6630 C.3    51  MET51       0.0598
     16  SD         8.3220   49.4150   20.1320 S.3    51  MET51      -0.1393
     17  CE         8.5120   51.1120   20.0220 C.3    51  MET51       0.0692
     18  N         22.1160   43.8620   11.8210 N.3   108  THR108     -0.1203
     19  CA        21.4590   44.8880   12.6670 C.3   108  THR108      0.1994
     20  C         21.1510   46.2030   11.9700 C.2   108  THR108      0.2618
     21  O         21.7430   46.5550   10.9440 O.2   108  THR108     -0.2717
     22  CB        22.1910   45.2200   14.0720 C.3   108  THR108      0.1784
     23  OG1       23.1990   46.2630   13.8910 O.3   108  THR108     -0.2211
     24  CG2       22.7710   43.8640   14.8310 C.3   108  THR108      0.0376
     25  N         20.2520   46.9520   12.5890 N.am  109  GLY109     -0.1942
     26  CA        19.8440   48.2550   12.0640 C.3   109  GLY109      0.2014
     27  C         20.9310   49.3190   12.1500 C.2   109  GLY109      0.2638
     28  O         20.9290   50.2470   11.3470 O.2   109  GLY109     -0.2714
     29  N         21.8550   49.1930   13.1160 N.am  110  ALA110     -0.1977
     30  CA        22.9210   50.1940   13.2870 C.3   110  ALA110      0.1597
     31  C         23.8210   49.8700   12.2090 C.2   110  ALA110      0.2287
     32  O         24.3650   50.7720   11.4900 O.2   110  ALA110     -0.2864
     33  CB        23.6380   50.0610   14.6510 C.3   110  ALA110      0.0319
     34  N         22.3940   51.0120    9.0170 N.3   113  ASN113     -0.1240
     35  CA        22.7010   52.4840    8.8550 C.3   113  ASN113      0.1653
     36  C         24.1960   52.8440    8.4970 C.2   113  ASN113      0.2266
     37  O         24.4780   53.6950    7.6280 O.2   113  ASN113     -0.2867
     38  CB        22.0770   53.3420   10.0050 C.3   113  ASN113      0.1155
     39  CG        20.5140   53.2630   10.0210 C.2   113  ASN113      0.2627
     40  OD1       19.8330   53.4470    8.9700 O.2   113  ASN113     -0.2716
     41  ND2       19.9590   52.8990   11.1670 N.am  113  ASN113     -0.0877
     42  N         17.3730   58.5890   16.2940 N.3   136  TRP136     -0.1227
     43  CA        17.9450   57.3700   16.8350 C.3   136  TRP136      0.1737
     44  C         18.2680   56.4470   15.6780 C.2   136  TRP136      0.2595
     45  O         17.3300   55.9430   14.9680 O.2   136  TRP136     -0.2718
     46  CB        17.0040   56.5730   17.7440 C.3   136  TRP136      0.0564
     47  CG        17.7320   55.3540   18.3090 C.ar  136  TRP136      0.0003
     48  CD1       17.7460   54.0730   17.8070 C.ar  136  TRP136      0.0946
     49  CD2       18.6710   55.3750   19.3560 C.ar  136  TRP136      0.0152
     50  NE1       18.6240   53.2880   18.5260 N.ar  136  TRP136     -0.2442
     51  CE2       19.1830   54.0730   19.4990 C.ar  136  TRP136      0.0810
     52  CE3       19.0720   56.3610   20.2730 C.ar  136  TRP136      0.0012
     53  CZ2       20.1230   53.7560   20.4860 C.ar  136  TRP136      0.0191
     54  CZ3       19.9760   56.0210   21.2620 C.ar  136  TRP136      0.0001
     55  CH2       20.4780   54.7440   21.3620 C.ar  136  TRP136      0.0015
     56  N         19.5540   56.1370   15.5400 N.am  137  HIS137     -0.1961
     57  CA        19.9390   55.2490   14.4890 C.3   137  HIS137      0.1787
     58  C         20.7540   54.0200   14.8700 C.2   137  HIS137      0.2621
     59  O         20.8090   53.0770   14.1010 O.2   137  HIS137     -0.2715
     60  CB        20.5220   56.0250   13.2900 C.3   137  HIS137      0.0785
     61  CG        19.5350   56.9430   12.6460 C.ar  137  HIS137      0.0821
     62  ND1       18.4940   56.4800   11.8760 N.ar  137  HIS137     -0.2267
     63  CD2       19.3790   58.2850   12.7270 C.ar  137  HIS137      0.1154
     64  CE1       17.7540   57.5020   11.4720 C.ar  137  HIS137      0.1986
     65  NE2       18.2720   58.6130   11.9830 N.ar  137  HIS137     -0.2212
     66  N         21.3010   53.9750   16.0960 N.am  138  GLY138     -0.1940
     67  CA        22.1010   52.8210   16.5020 C.3   138  GLY138      0.2014
     68  C         23.1310   53.1750   17.5480 C.2   138  GLY138      0.2638
     69  O         23.3740   54.3630   17.8770 O.2   138  GLY138     -0.2714
     70  N         23.7650   52.1260   18.0580 N.am  139  MET139     -0.1976
     71  CA        24.7350   52.2620   19.1310 C.3   139  MET139      0.1605
     72  C         26.1180   52.4140   18.6000 C.2   139  MET139      0.2287
     73  O         27.0480   52.7070   19.3600 O.2   139  MET139     -0.2864
     74  CB        24.7070   51.0030   20.0050 C.3   139  MET139      0.0413
     75  CG        23.6140   50.9220   21.0810 C.3   139  MET139      0.0598
     76  SD        23.3390   52.4560   22.0800 S.3   139  MET139     -0.1393
     77  CE        24.9120   53.0250   22.5350 C.3   139  MET139      0.0692
     78  N         18.5290   61.8830   19.7260 N.3   149  SER149     -0.1202
     79  CA        17.5660   61.7190   20.7700 C.3   149  SER149      0.2020
     80  C         18.3850   61.4250   22.0390 C.2   149  SER149      0.2618
     81  O         18.1060   61.9390   23.1150 O.2   149  SER149     -0.2717
     82  CB        16.6590   60.5290   20.4640 C.3   149  SER149      0.2103
     83  OG        17.2360   59.3220   20.9460 O.3   149  SER149     -0.2182
     84  N         19.4460   60.6510   21.9250 N.am  150  ALA150     -0.1979
     85  CA        20.1620   60.3010   23.1410 C.3   150  ALA150      0.1597
     86  C         21.5550   59.8020   22.9040 C.2   150  ALA150      0.2287
     87  O         22.0100   59.8120   21.7550 O.2   150  ALA150     -0.2864
     88  CB        19.4020   59.2430   23.8180 C.3   150  ALA150      0.0319
     89  N         14.3090   59.0150   10.0600 N.3   208  GLU208     -0.1245
     90  CA        13.2980   58.0860   10.3860 C.3   208  GLU208      0.1567
     91  C         11.9410   58.7360    9.8560 C.2   208  GLU208      0.2260
     92  O         11.6210   59.9450   10.0630 O.2   208  GLU208     -0.2867
     93  CB        13.2210   57.9880   11.9080 C.3   208  GLU208      0.0388
     94  CG        14.3350   57.2860   12.5630 C.3   208  GLU208      0.1160
     95  CD        14.2540   57.4520   14.0510 C.2   208  GLU208      0.3649
     96  OE1       13.4810   56.6830   14.7450 O.co2 208  GLU208     -0.2457
     97  OE2       14.8610   58.4370   14.4980 O.co2 208  GLU208     -0.2457
     98  N         10.6920   57.2650   16.2070 N.3   212  SER212     -0.1202
     99  CA        10.1360   56.3840   17.1740 C.3   212  SER212      0.2020
    100  C         10.6290   56.7540   18.5520 C.2   212  SER212      0.2619
    101  O          9.8850   57.2230   19.4080 O.2   212  SER212     -0.2717
    102  CB        10.4580   54.9060   16.8750 C.3   212  SER212      0.2103
    103  OG         9.9580   54.0100   17.9010 O.3   212  SER212     -0.2182
    104  N         11.8780   56.4850   18.7880 N.am  213  SER213     -0.1951
    105  CA        12.3980   56.7740   20.0740 C.3   213  SER213      0.1924
    106  C         12.2260   58.2800   20.3480 C.2   213  SER213      0.2314
    107  O         11.9940   58.6580   21.4600 O.2   213  SER213     -0.2863
    108  CB        13.8620   56.3610   20.1640 C.3   213  SER213      0.2116
    109  OG        14.6580   57.3580   19.5420 O.3   213  SER213     -0.2180
    110  N         15.7400   55.5150    7.2310 N.3   241  ASP241     -0.1239
    111  CA        15.8840   54.4460    8.2100 C.3   241  ASP241      0.1674
    112  C         14.4760   53.7720    8.5550 C.2   241  ASP241      0.2266
    113  O         13.7140   54.2820    9.3330 O.2   241  ASP241     -0.2867
    114  CB        16.6550   55.0200    9.4490 C.3   241  ASP241      0.1410
    115  CG        16.9430   53.9420   10.5510 C.2   241  ASP241      0.3668
    116  OD1       16.2700   52.8850   10.4910 O.co2 241  ASP241     -0.2456
    117  OD2       17.7370   54.2090   11.5310 O.co2 241  ASP241     -0.2456
    118  N         13.8470   50.9650   10.1840 N.3   243  ALA243     -0.1231
    119  CA        13.9920   49.8630   11.1320 C.3   243  ALA243      0.1694
    120  C         12.6050   49.5120   11.8470 C.2   243  ALA243      0.2591
    121  O         12.2470   48.3150   12.1110 O.2   243  ALA243     -0.2718
    122  CB        15.1250   50.1890   12.1850 C.3   243  ALA243      0.0304
    123  N         11.8360   50.5490   12.1470 N.am  244  GLN244     -0.1979
    124  CA        10.5940   50.3350   12.8310 C.3   244  GLN244      0.1601
    125  C          9.4450   50.6540   11.9410 C.2   244  GLN244      0.2287
    126  O          8.3800   50.0970   12.0870 O.2   244  GLN244     -0.2864
    127  CB        10.5320   51.2210   14.1000 C.3   244  GLN244      0.0394
    128  CG        11.6790   51.0300   15.0140 C.3   244  GLN244      0.0908
    129  CD        11.4620   51.6060   16.3990 C.2   244  GLN244      0.2608
    130  OE1       10.3470   51.7210   16.8780 O.2   244  GLN244     -0.2717
    131  NE2       12.5370   51.8550   17.0920 N.am  244  GLN244     -0.0878
    132  N         15.6840   46.5100    9.3030 N.3   269  SER269     -0.1202
    133  CA        16.2310   45.6170   10.3140 C.3   269  SER269      0.2020
    134  C         15.1770   45.0140   11.2050 C.2   269  SER269      0.2618
    135  O         14.7460   43.9190   10.9490 O.2   269  SER269     -0.2717
    136  CB        17.2840   46.3050   11.1570 C.3   269  SER269      0.2103
    137  OG        16.8550   47.5990   11.4190 O.3   269  SER269     -0.2182
    138  N         14.7750   45.7230   12.2690 N.am  270  LYS270     -0.1979
    139  CA        13.8570   45.1510   13.3140 C.3   270  LYS270      0.1596
    140  C         12.7030   44.3720   12.8160 C.2   270  LYS270      0.2287
    141  O         12.5970   43.1500   13.0640 O.2   270  LYS270     -0.2864
    142  CB        13.4160   46.1440   14.4310 C.3   270  LYS270      0.0298
    143  CG        14.2690   47.4010   14.5400 C.3   270  LYS270      0.0038
    144  CD        13.5390   48.5590   15.2490 C.3   270  LYS270      0.0206
    145  CE        12.9620   48.1170   16.5920 C.3   270  LYS270      0.1093
    146  NZ        14.0500   47.9930   17.5850 N.3   270  LYS270     -0.1314
    147  N          5.8580   50.7840   26.8770 N.3   392  ASN392     -0.1240
    148  CA         7.0770   51.5610   26.7550 C.3   392  ASN392      0.1653
    149  C          6.8480   53.0480   26.6370 C.2   392  ASN392      0.2266
    150  O          6.1450   53.5700   25.7330 O.2   392  ASN392     -0.2867
    151  CB         8.0440   50.9980   25.6680 C.3   392  ASN392      0.1155
    152  CG         9.2550   51.9540   25.3630 C.2   392  ASN392      0.2627
    153  OD1        9.0260   53.0150   24.6620 O.2   392  ASN392     -0.2716
    154  ND2       10.4630   51.5950   25.8350 N.am  392  ASN392     -0.0877
    155  N          4.9520   54.2200   23.7190 N.3   404  ARG404     -0.1245
    156  CA         5.1450   53.8390   22.3460 C.3   404  ARG404      0.1563
    157  C          4.4140   52.5390   22.1680 C.2   404  ARG404      0.2260
    158  O          4.9080   51.5020   22.6050 O.2   404  ARG404     -0.2867
    159  CB         6.6690   53.6650   22.0520 C.3   404  ARG404      0.0307
    160  CG         7.4580   55.0340   21.9270 C.3   404  ARG404      0.0489
    161  CD         8.8430   54.8990   21.2380 C.3   404  ARG404      0.2205
    162  NE         9.6400   53.9200   21.9620 N.pl3 404  ARG404     -0.0865
    163  CZ        10.7460   53.3490   21.5370 C.cat 404  ARG404      0.5346
    164  NH1       11.2870   53.6870   20.3700 N.pl3 404  ARG404      0.1354
    165  NH2       11.3160   52.4410   22.3150 N.pl3 404  ARG404      0.1354
@<TRIPOS>BOND
     1   110   111    1
     2    37    36    2
     3   111   112    1
     4   111   114    1
     5    36    35    1
     6   112   113    2
     7    35    34    1
     8    35    38    1
     9    40    39    2
    10   132   133    1
    11   114   115    1
    12    91    92    2
    13    91    90    1
    14    38    39    1
    15    39    41   am
    16    89    90    1
    17   118   119    1
    18   133   136    1
    19   133   134    1
    20    90    93    1
    21   116   115   ar
    22   115   117   ar
    23    21    20    2
    24   135   134    2
    25   119   120    1
    26   119   122    1
    27   136   137    1
    28   134   138   am
    29    28    27    2
    30    64    62   ar
    31    64    65   ar
    32    32    31    2
    33    18    19    1
    34   120   121    2
    35   120   123   am
    36    62    61   ar
    37    93    94    1
    38   125   126    2
    39   125   124    1
    40    20    25   am
    41    20    19    1
    42    65    63   ar
    43    26    27    1
    44    26    25    1
    45   123   124    1
    46    27    29   am
    47    31    30    1
    48   138   139    1
    49    94    95    1
    50    61    63   ar
    51    61    60    1
    52    19    22    1
    53   140   141    2
    54   140   139    1
    55   124   127    1
    56    29    30    1
    57    30    33    1
    58    60    57    1
    59   139   142    1
    60    23    22    1
    61    95    97   ar
    62    95    96   ar
    63    22    24    1
    64   127   128    1
    65    59    58    2
    66   142   143    1
    67    57    58    1
    68    57    56    1
    69   143   144    1
    70    58    66   am
    71    45    44    2
    72   128   129    1
    73   144   145    1
    74    56    44   am
    75    44    43    1
    76    66    67    1
    77    13    12    2
    78    98    99    1
    79    42    43    1
    80   129   130    2
    81   129   131   am
    82    67    68    1
    83   145   146    1
    84    43    46    1
    85   102    99    1
    86   102   103    1
    87    99   100    1
    88    12    11    1
    89    68    69    2
    90    68    70   am
    91    46    47    1
    92    48    47   ar
    93    48    50   ar
    94    70    71    1
    95    47    49   ar
    96    14    11    1
    97    14    15    1
    98    11    10    1
    99    50    51   ar
   100   100   104   am
   101   100   101    2
   102    72    71    1
   103    72    73    2
   104   104   105    1
   105     4     3    2
   106    71    74    1
   107    49    51   ar
   108    49    52   ar
   109    51    53   ar
   110   109   108    1
   111    15    16    1
   112    10     3   am
   113    78    79    1
   114     3     2    1
   115    74    75    1
   116    17    16    1
   117   105   108    1
   118   105   106    1
   119    52    54   ar
   120   106   107    2
   121   164   163    1
   122    82    79    1
   123    82    83    1
   124    53    55   ar
   125    79    80    1
   126    75    76    1
   127     2     5    1
   128     2     1    1
   129     5     6    1
   130   161   160    1
   131   161   162    1
   132    54    55   ar
   133   163   162    2
   134   163   165    1
   135     6     7    1
   136    87    86    2
   137    84    80   am
   138    84    85    1
   139   160   159    1
   140    80    81    2
   141   159   156    1
   142    76    77    1
   143   157   156    1
   144   157   158    2
   145   156   155    1
   146     9     7   am
   147     7     8    2
   148    86    85    1
   149    85    88    1
   150   153   152    2
   151   152   151    1
   152   152   154   am
   153   151   148    1
   154   150   149    2
   155   149   148    1
   156   148   147    1
