@<TRIPOS>MOLECULE
tmp/1m0sB00.pdb
 119 112 0 0 0
SMALL
GASTEIGER

@<TRIPOS>ATOM
      1  N        -13.6530  -17.3650   13.2330 N.3     7  LYS7       -0.1245
      2  CA       -12.4130  -16.7640   12.7360 C.3     7  LYS7        0.1561
      3  C        -11.7610  -17.7010   11.6920 C.2     7  LYS7        0.2260
      4  O        -11.3170  -17.2530   10.6190 O.2     7  LYS7       -0.2867
      5  CB       -11.4460  -16.5120   13.8970 C.3     7  LYS7        0.0271
      6  CG       -11.9280  -15.4080   14.8550 C.3     7  LYS7        0.0035
      7  CD       -10.9210  -15.1800   16.0200 C.3     7  LYS7        0.0206
      8  CE       -11.3930  -14.0330   16.9040 C.3     7  LYS7        0.1093
      9  NZ       -10.4600  -13.8600   18.0600 N.3     7  LYS7       -0.1314
     10  N         -2.2080   -8.5080   11.4640 N.3    28  SER28      -0.1202
     11  CA        -1.7730   -9.0130   12.7480 C.3    28  SER28       0.2020
     12  C         -3.0060   -9.3110   13.6030 C.2    28  SER28       0.2619
     13  O         -4.1010   -8.8050   13.3430 O.2    28  SER28      -0.2717
     14  CB        -0.8990   -7.9530   13.4430 C.3    28  SER28       0.2103
     15  OG        -0.2940   -8.4370   14.6420 O.3    28  SER28      -0.2182
     16  N         -2.8390  -10.1350   14.6310 N.am   29  GLY29      -0.1942
     17  CA        -3.9890  -10.4270   15.4650 C.3    29  GLY29       0.2014
     18  C         -4.4640  -11.8590   15.3960 C.2    29  GLY29       0.2640
     19  O         -4.0370  -12.6290   14.5390 O.2    29  GLY29      -0.2714
     20  N         -5.3820  -12.2060   16.2960 N.am   30  SER30      -0.1935
     21  CA        -5.8550  -13.5840   16.3900 C.3    30  SER30       0.2055
     22  C         -6.5240  -14.1090   15.1290 C.2    30  SER30       0.2644
     23  O         -6.3500  -15.2790   14.7730 O.2    30  SER30      -0.2714
     24  CB        -6.7890  -13.7360   17.5940 C.3    30  SER30       0.2130
     25  OG        -7.9900  -12.9880   17.4480 O.3    30  SER30      -0.2179
     26  N         -7.2910  -13.2700   14.4430 N.am   31  THR31      -0.1936
     27  CA        -7.9410  -13.7510   13.2390 C.3    31  THR31       0.2028
     28  C         -6.9280  -13.9440   12.1210 C.2    31  THR31       0.2642
     29  O         -7.0170  -14.9230   11.3800 O.2    31  THR31      -0.2714
     30  CB        -9.0740  -12.8040   12.7780 C.3    31  THR31       0.1808
     31  OG1       -9.9100  -12.4690   13.9050 O.3    31  THR31      -0.2208
     32  CG2       -9.9350  -13.5060   11.7650 C.3    31  THR31       0.0379
     33  N         -5.9720  -13.0160   11.9930 N.am   32  VAL32      -0.1977
     34  CA        -4.9380  -13.1370   10.9580 C.3    32  VAL32       0.1596
     35  C         -4.0670  -14.3580   11.2490 C.2    32  VAL32       0.2287
     36  O         -3.5480  -15.0040   10.3290 O.2    32  VAL32      -0.2864
     37  CB        -4.0550  -11.8520   10.8850 C.3    32  VAL32       0.0276
     38  CG1       -2.7850  -12.1050   10.0920 C.3    32  VAL32       0.0022
     39  CG2       -4.8340  -10.7340   10.2200 C.3    32  VAL32       0.0022
     40  N         -6.5380   -8.5300    6.8680 N.3    81  ASP81      -0.1225
     41  CA        -6.3810   -8.1320    8.2610 C.3    81  ASP81       0.1805
     42  C         -7.7240   -8.1960    8.9930 C.2    81  ASP81       0.2598
     43  O         -8.7930   -8.1730    8.3730 O.2    81  ASP81      -0.2718
     44  CB        -5.7940   -6.7060    8.3060 C.3    81  ASP81       0.1424
     45  CG        -5.1700   -6.3420    9.6810 C.2    81  ASP81       0.3668
     46  OD1       -5.1020   -7.2010   10.6170 O.co2  81  ASP81      -0.2456
     47  OD2       -4.7250   -5.1770    9.8210 O.co2  81  ASP81      -0.2456
     48  N         -7.6710   -8.3170   10.3200 N.am   82  GLY82      -0.1942
     49  CA        -8.8990   -8.3530   11.0910 C.3    82  GLY82       0.2014
     50  C         -9.2720   -6.9450   11.5420 C.2    82  GLY82       0.2639
     51  O         -8.6930   -5.9380   11.0660 O.2    82  GLY82      -0.2714
     52  N        -10.2540   -6.8390   12.4350 N.am   83  ALA83      -0.1963
     53  CA       -10.6670   -5.5300   12.9540 C.3    83  ALA83       0.1728
     54  C        -11.3910   -5.7490   14.2610 C.2    83  ALA83       0.2616
     55  O        -11.9270   -6.8230   14.4860 O.2    83  ALA83      -0.2715
     56  CB       -11.6060   -4.8230   11.9730 C.3    83  ALA83       0.0334
     57  N        -11.3970   -4.7260   15.1200 N.am   84  ASP84      -0.1971
     58  CA       -12.0970   -4.7970   16.4040 C.3    84  ASP84       0.1709
     59  C        -13.5770   -4.4430   16.2300 C.2    84  ASP84       0.2293
     60  O        -14.4350   -4.9810   16.9510 O.2    84  ASP84      -0.2864
     61  CB       -11.4230   -3.8840   17.4060 C.3    84  ASP84       0.1436
     62  CG       -10.0290   -4.3430   17.7040 C.2    84  ASP84       0.3671
     63  OD1       -9.8780   -5.5090   18.1280 O.co2  84  ASP84      -0.2456
     64  OD2       -9.0890   -3.5710   17.4850 O.co2  84  ASP84      -0.2456
     65  N         -9.4170   -0.3820   14.6730 N.3    94  LYS94      -0.1231
     66  CA        -8.3940   -1.4050   14.8270 C.3    94  LYS94       0.1693
     67  C         -7.4280   -0.9570   15.9040 C.2    94  LYS94       0.2593
     68  O         -7.5310    0.1840   16.3900 O.2    94  LYS94      -0.2718
     69  CB        -7.6480   -1.5980   13.4930 C.3    94  LYS94       0.0285
     70  CG        -8.5900   -2.1810   12.3940 C.3    94  LYS94       0.0035
     71  CD        -7.9400   -2.2980   11.0120 C.3    94  LYS94       0.0206
     72  CE        -6.5660   -2.9410   11.0700 C.3    94  LYS94       0.1093
     73  NZ        -6.5160   -4.1520   11.9450 N.3    94  LYS94      -0.1314
     74  N         -6.4990   -1.8430   16.2730 N.am   95  GLY95      -0.1942
     75  CA        -5.5020   -1.5200   17.2860 C.3    95  GLY95       0.2014
     76  C         -5.6300   -2.2880   18.6030 C.2    95  GLY95       0.2639
     77  O         -4.8500   -2.0530   19.5440 O.2    95  GLY95      -0.2714
     78  N         -6.5930   -3.2050   18.6990 N.am   96  GLY96      -0.1939
     79  CA        -6.7150   -3.9820   19.9330 C.3    96  GLY96       0.2014
     80  C         -5.4200   -4.7570   20.1370 C.2    96  GLY96       0.2639
     81  O         -4.9130   -4.9160   21.2460 O.2    96  GLY96      -0.2714
     82  N         -4.8790   -5.2330   19.0240 N.am   97  GLY97      -0.1954
     83  CA        -3.6350   -5.9900   19.0310 C.3    97  GLY97       0.1869
     84  C         -2.3620   -5.1550   18.9640 C.2    97  GLY97       0.2309
     85  O         -1.2660   -5.6920   18.7050 O.2    97  GLY97      -0.2863
     86  N         -1.0620   -3.2240   16.7690 N.3    99  ALA99      -0.1245
     87  CA        -0.2860   -3.1910   15.5220 C.3    99  ALA99       0.1562
     88  C         -0.8260   -2.1730   14.5130 C.2    99  ALA99       0.2260
     89  O         -0.4310   -2.2040   13.3400 O.2    99  ALA99      -0.2867
     90  CB        -0.3120   -4.5990   14.8940 C.3    99  ALA99       0.0290
     91  N         -0.1220   -1.6780   10.3640 N.3   103  GLU103     -0.1245
     92  CA        -1.2780   -2.1460    9.6140 C.3   103  GLU103      0.1567
     93  C         -1.7410   -1.0230    8.6610 C.2   103  GLU103      0.2260
     94  O         -2.0870   -1.2790    7.4950 O.2   103  GLU103     -0.2867
     95  CB        -2.4120   -2.5480   10.5750 C.3   103  GLU103      0.0388
     96  CG        -2.0980   -3.8760   11.3240 C.3   103  GLU103      0.1160
     97  CD        -3.1050   -4.2130   12.4400 C.2   103  GLU103      0.3649
     98  OE1       -3.1380   -5.3800   12.8940 O.co2 103  GLU103     -0.2457
     99  OE2       -3.8600   -3.3200   12.8770 O.co2 103  GLU103     -0.2457
    100  N        -17.9020   -8.7990   15.3580 N.3   121  LYS121     -0.1245
    101  CA       -17.2140   -7.5440   15.0380 C.3   121  LYS121      0.1561
    102  C        -18.0720   -6.5190   14.2910 C.2   121  LYS121      0.2260
    103  O        -17.6800   -5.3590   14.1590 O.2   121  LYS121     -0.2867
    104  CB       -15.9250   -7.8260   14.2350 C.3   121  LYS121      0.0271
    105  CG       -14.9080   -8.7650   14.9460 C.3   121  LYS121      0.0035
    106  CD       -14.5400   -8.2660   16.3600 C.3   121  LYS121      0.0206
    107  CE       -13.2560   -8.9530   16.8610 C.3   121  LYS121      0.1093
    108  NZ       -13.5630  -10.3140   17.3150 N.3   121  LYS121     -0.1314
    109  N        -16.2150   -0.7840   21.7030 N.3   130  PHE130     -0.1241
    110  CA       -14.7760   -0.9070   21.8150 C.3   130  PHE130      0.1605
    111  C        -14.0610    0.4340   21.9760 C.2   130  PHE130      0.2264
    112  O        -14.3060    1.3560   21.2160 O.2   130  PHE130     -0.2867
    113  CB       -14.2990   -1.6130   20.5290 C.3   130  PHE130      0.0534
    114  CG       -12.9020   -2.1250   20.5890 C.ar  130  PHE130     -0.0203
    115  CD1      -12.6050   -3.2820   21.3070 C.ar  130  PHE130     -0.0042
    116  CD2      -11.8780   -1.4520   19.9300 C.ar  130  PHE130     -0.0042
    117  CE1      -11.3110   -3.7620   21.3620 C.ar  130  PHE130     -0.0003
    118  CE2      -10.5650   -1.9300   19.9820 C.ar  130  PHE130     -0.0003
    119  CZ       -10.2870   -3.0790   20.6930 C.ar  130  PHE130     -0.0000
@<TRIPOS>BOND
     1    40    41    1
     2    94    93    2
     3    41    44    1
     4    41    42    1
     5    44    45    1
     6    43    42    2
     7    93    92    1
     8    42    48   am
     9    92    91    1
    10    92    95    1
    11    45    47   ar
    12    45    46   ar
    13    38    37    1
    14    39    37    1
    15    48    49    1
    16    36    35    2
    17    95    96    1
    18     4     3    2
    19    37    34    1
    20    34    35    1
    21    34    33    1
    22    71    72    1
    23    71    70    1
    24    51    50    2
    25    72    73    1
    26    49    50    1
    27    96    97    1
    28    29    28    2
    29    10    11    1
    30    50    52   am
    31     3     2    1
    32    32    30    1
    33    56    53    1
    34    33    28   am
    35    28    27    1
    36    70    69    1
    37    52    53    1
    38    97    99   ar
    39    97    98   ar
    40     2     1    1
    41     2     5    1
    42    11    14    1
    43    11    12    1
    44    30    27    1
    45    30    31    1
    46    53    54    1
    47    27    26    1
    48    89    88    2
    49    13    12    2
    50    14    15    1
    51    69    66    1
    52    12    16   am
    53     5     6    1
    54   103   102    2
    55   104   105    1
    56   104   101    1
    57    54    55    2
    58    54    57   am
    59   102   101    1
    60    26    22   am
    61    88    87    1
    62    19    18    2
    63    16    17    1
    64    65    66    1
    65    23    22    2
    66    66    67    1
    67     6     7    1
    68    90    87    1
    69   105   106    1
    70   101   100    1
    71    57    58    1
    72    22    21    1
    73    18    17    1
    74    18    20   am
    75    87    86    1
    76    67    74   am
    77    67    68    2
    78     7     8    1
    79    59    58    1
    80    59    60    2
    81    74    75    1
    82    20    21    1
    83   106   107    1
    84    21    24    1
    85    58    61    1
    86   107   108    1
    87     8     9    1
    88    75    76    1
    89    61    62    1
    90    25    24    1
    91    64    62   ar
    92    62    63   ar
    93    76    78   am
    94    76    77    2
    95    78    79    1
    96    85    84    2
    97    84    83    1
    98    82    83    1
    99    82    80   am
   100   116   118   ar
   101   116   114   ar
   102    79    80    1
   103   118   119   ar
   104    80    81    2
   105   113   114    1
   106   113   110    1
   107   114   115   ar
   108   119   117   ar
   109   112   111    2
   110   115   117   ar
   111   109   110    1
   112   110   111    1
