@<TRIPOS>MOLECULE
tmp/1m0vA00.pdb
 108 101 0 0 0
SMALL
GASTEIGER

@<TRIPOS>ATOM
      1  N         -1.0820    9.6180   -7.0950 N.3     3  LEU3       -0.1245
      2  CA        -0.0700   10.4870   -6.4990 C.3     3  LEU3        0.1561
      3  C          1.3310    9.9890   -6.8420 C.2     3  LEU3        0.2260
      4  O          1.4970    8.9090   -7.4070 O.2     3  LEU3       -0.2867
      5  CB        -0.2260   10.5420   -4.9750 C.3     3  LEU3        0.0270
      6  CG        -1.4820   11.2460   -4.4590 C.3     3  LEU3        0.0019
      7  CD1       -2.5970   10.2380   -4.2230 C.3     3  LEU3        0.0001
      8  CD2       -1.1710   12.0100   -3.1780 C.3     3  LEU3        0.0001
      9  N          5.6840   11.4660   -2.4300 N.3     7  ASP7       -0.1239
     10  CA         4.6310   12.0180   -1.5830 C.3     7  ASP7        0.1674
     11  C          3.7540   10.8950   -1.0460 C.2     7  ASP7        0.2266
     12  O          3.4280   10.8580    0.1390 O.2     7  ASP7       -0.2867
     13  CB         3.7770   13.0250   -2.3570 C.3     7  ASP7        0.1410
     14  CG         3.5420   14.3030   -1.5750 C.2     7  ASP7        0.3668
     15  OD1        4.4070   14.6610   -0.7490 O.co2   7  ASP7       -0.2456
     16  OD2        2.4930   14.9460   -1.7900 O.co2   7  ASP7       -0.2456
     17  N          5.1830    9.3710    1.6360 N.3    10  ARG10      -0.1231
     18  CA         5.2040   10.4370    2.6270 C.3    10  ARG10       0.1694
     19  C          3.8840   10.4930    3.3930 C.2    10  ARG10       0.2591
     20  O          3.8570   10.2840    4.6100 O.2    10  ARG10      -0.2718
     21  CB         5.5060   11.7860    1.9680 C.3    10  ARG10       0.0321
     22  CG         6.9350   11.9080    1.4630 C.3    10  ARG10       0.0489
     23  CD         7.8360   12.5600    2.4990 C.3    10  ARG10       0.2205
     24  NE         8.9240   13.3170    1.8830 N.pl3  10  ARG10      -0.0865
     25  CZ        10.0200   13.7010    2.5340 C.cat  10  ARG10       0.5346
     26  NH1       10.1820   13.3940    3.8150 N.pl3  10  ARG10       0.1354
     27  NH2       10.9580   14.3930    1.9010 N.pl3  10  ARG10       0.1354
     28  N          2.7850   10.7640    2.6900 N.am   11  GLN11      -0.1979
     29  CA         1.4890   10.8320    3.3500 C.3    11  GLN11       0.1601
     30  C          1.0870    9.4690    3.9210 C.2    11  GLN11       0.2287
     31  O          0.7790    9.3580    5.1150 O.2    11  GLN11      -0.2864
     32  CB         0.3920   11.3940    2.4230 C.3    11  GLN11       0.0394
     33  CG         0.3560   10.8100    1.0110 C.3    11  GLN11       0.0908
     34  CD         0.8920   11.7450   -0.0730 C.2    11  GLN11       0.2608
     35  OE1        1.1020   11.3180   -1.2080 O.2    11  GLN11      -0.2717
     36  NE2        1.1070   13.0200    0.2500 N.am   11  GLN11      -0.0878
     37  N          3.1760    8.5710    6.7910 N.3    14  ARG14      -0.1231
     38  CA         2.9790    9.4650    7.9120 C.3    14  ARG14       0.1694
     39  C          1.7570    9.0700    8.7110 C.2    14  ARG14       0.2591
     40  O          1.7420    9.1990    9.9350 O.2    14  ARG14      -0.2718
     41  CB         2.8540   10.9100    7.4430 C.3    14  ARG14       0.0321
     42  CG         2.9140   11.9200    8.5770 C.3    14  ARG14       0.0489
     43  CD         4.3330   12.0940    9.0940 C.3    14  ARG14       0.2205
     44  NE         5.1150   12.9950    8.2510 N.pl3  14  ARG14      -0.0865
     45  CZ         6.4350   13.1380    8.3420 C.cat  14  ARG14       0.5346
     46  NH1        7.1240   12.4480    9.2430 N.pl3  14  ARG14       0.1354
     47  NH2        7.0670   13.9750    7.5310 N.pl3  14  ARG14       0.1354
     48  N          0.7290    8.5840    8.0290 N.am   15  LEU15      -0.1980
     49  CA        -0.4770    8.1800    8.7260 C.3    15  LEU15       0.1596
     50  C         -0.2640    6.8510    9.4390 C.2    15  LEU15       0.2287
     51  O         -0.5260    6.7260   10.6320 O.2    15  LEU15      -0.2864
     52  CB        -1.6620    8.0560    7.7770 C.3    15  LEU15       0.0297
     53  CG        -1.6440    8.9890    6.5750 C.3    15  LEU15       0.0022
     54  CD1       -1.6740    8.1750    5.2980 C.3    15  LEU15       0.0001
     55  CD2       -2.8180    9.9560    6.6250 C.3    15  LEU15       0.0001
     56  N         -0.5090    7.5090   13.0960 N.3    19  GLU19      -0.1245
     57  CA        -1.8500    8.0560   12.8870 C.3    19  GLU19       0.1567
     58  C         -2.8730    6.9420   12.6870 C.2    19  GLU19       0.2260
     59  O         -4.0080    7.0370   13.1550 O.2    19  GLU19      -0.2867
     60  CB        -1.8700    8.9970   11.6770 C.3    19  GLU19       0.0388
     61  CG        -2.4380   10.3720   11.9890 C.3    19  GLU19       0.1160
     62  CD        -1.3590   11.4250   12.1470 C.2    19  GLU19       0.3649
     63  OE1       -0.8500   11.9130   11.1160 O.co2  19  GLU19      -0.2457
     64  OE2       -1.0220   11.7610   13.3010 O.co2  19  GLU19      -0.2457
     65  N         -7.0940    4.8810    2.1650 N.3    26  LYS26      -0.1245
     66  CA        -7.9990    5.2180    1.0770 C.3    26  LYS26       0.1561
     67  C         -7.2850    6.1200    0.0680 C.2    26  LYS26       0.2260
     68  O         -6.6470    7.1020    0.4450 O.2    26  LYS26      -0.2867
     69  CB        -9.2670    5.8800    1.6450 C.3    26  LYS26       0.0271
     70  CG        -9.3870    7.3740    1.3870 C.3    26  LYS26       0.0035
     71  CD       -10.0100    7.6610    0.0300 C.3    26  LYS26       0.0206
     72  CE       -11.0950    8.7220    0.1280 C.3    26  LYS26       0.1093
     73  NZ       -11.7950    8.9200   -1.1710 N.3    26  LYS26      -0.1314
     74  N         -7.2090    8.3670   -3.7370 N.3    28  ARG28      -0.1231
     75  CA        -7.9940    9.2020   -4.6440 C.3    28  ARG28       0.1694
     76  C         -7.3490   10.5780   -4.7420 C.2    28  ARG28       0.2593
     77  O         -7.9380   11.5880   -4.3550 O.2    28  ARG28      -0.2718
     78  CB        -9.4480    9.3240   -4.1700 C.3    28  ARG28       0.0321
     79  CG       -10.4240    8.4980   -4.9940 C.3    28  ARG28       0.0489
     80  CD       -11.8050    8.4650   -4.3600 C.3    28  ARG28       0.2205
     81  NE       -12.2010    7.1100   -3.9780 N.pl3  28  ARG28      -0.0865
     82  CZ       -13.2330    6.8360   -3.1820 C.cat  28  ARG28       0.5346
     83  NH1      -13.9750    7.8150   -2.6810 N.pl3  28  ARG28       0.1354
     84  NH2      -13.5220    5.5770   -2.8860 N.pl3  28  ARG28       0.1354
     85  N         -6.1080   10.6010   -5.2250 N.am   29  GLY29      -0.1942
     86  CA        -5.3720   11.8470   -5.3210 C.3    29  GLY29       0.2014
     87  C         -4.7890   12.2400   -3.9740 C.2    29  GLY29       0.2639
     88  O         -4.1280   13.2710   -3.8430 O.2    29  GLY29      -0.2714
     89  N         -5.0530   11.4030   -2.9710 N.am   30  ASN30      -0.1958
     90  CA        -4.5840   11.6210   -1.6150 C.3    30  ASN30       0.1819
     91  C         -4.7560   10.3290   -0.8170 C.2    30  ASN30       0.2621
     92  O         -5.4770    9.4270   -1.2440 O.2    30  ASN30      -0.2715
     93  CB        -5.3720   12.7780   -0.9760 C.3    30  ASN30       0.1195
     94  CG        -5.7580   12.5230    0.4730 C.2    30  ASN30       0.2630
     95  OD1       -5.3260   13.2340    1.3790 O.2    30  ASN30      -0.2716
     96  ND2       -6.5800   11.5010    0.6950 N.am   30  ASN30      -0.0877
     97  N         -4.1250   10.2440    0.3470 N.am   31  VAL31      -0.1963
     98  CA        -4.2620    9.0590    1.1840 C.3    31  VAL31       0.1727
     99  C         -5.0280    9.3760    2.4600 C.2    31  VAL31       0.2616
    100  O         -4.8140   10.4100    3.0930 O.2    31  VAL31      -0.2715
    101  CB        -2.9060    8.4420    1.5540 C.3    31  VAL31       0.0290
    102  CG1       -2.0590    9.4370    2.3250 C.3    31  VAL31       0.0023
    103  CG2       -3.0970    7.1620    2.3550 C.3    31  VAL31       0.0023
    104  N         -5.9180    8.4700    2.8260 N.am   32  ALA32      -0.1977
    105  CA        -6.7300    8.6250    4.0290 C.3    32  ALA32       0.1597
    106  C         -6.5850    7.4120    4.9390 C.2    32  ALA32       0.2287
    107  O         -6.0690    6.3740    4.5240 O.2    32  ALA32      -0.2864
    108  CB        -8.1900    8.8510    3.6700 C.3    32  ALA32       0.0319
@<TRIPOS>BOND
     1     4     3    2
     2     1     2    1
     3     3     2    1
     4     2     5    1
     5    86    85    1
     6    86    87    1
     7    85    76   am
     8    79    80    1
     9    79    78    1
    10     5     6    1
    11    76    75    1
    12    76    77    2
    13    75    78    1
    14    75    74    1
    15     6     7    1
    16     6     8    1
    17    80    81    1
    18    81    82    2
    19    87    88    2
    20    87    89   am
    21    82    84    1
    22    82    83    1
    23    89    90    1
    24     9    10    1
    25    13    10    1
    26    13    14    1
    27    16    14   ar
    28    90    93    1
    29    90    91    1
    30    10    11    1
    31    14    15   ar
    32    92    91    2
    33    35    34    2
    34    73    72    1
    35    11    12    2
    36    93    94    1
    37    91    97   am
    38    34    36   am
    39    34    33    1
    40    71    72    1
    41    71    70    1
    42    67    68    2
    43    67    66    1
    44    97    98    1
    45    94    96   am
    46    94    95    2
    47    33    32    1
    48    66    69    1
    49    66    65    1
    50    98   101    1
    51    98    99    1
    52    70    69    1
    53    22    21    1
    54    22    23    1
    55   101   102    1
    56   101   103    1
    57    17    18    1
    58    24    23    1
    59    24    25    2
    60    27    25    1
    61    21    18    1
    62    32    29    1
    63    99   104   am
    64    99   100    2
    65    25    26    1
    66    18    19    1
    67    28    29    1
    68    28    19   am
    69   104   105    1
    70    29    30    1
    71    19    20    2
    72   108   105    1
    73    30    31    2
    74   105   106    1
    75   107   106    2
    76    54    53    1
    77    53    55    1
    78    53    52    1
    79    37    38    1
    80    41    38    1
    81    41    42    1
    82    47    45    1
    83    52    49    1
    84    38    39    1
    85    48    39   am
    86    48    49    1
    87    44    45    2
    88    44    43    1
    89    45    46    1
    90    42    43    1
    91    39    40    2
    92    49    50    1
    93    50    51    2
    94    63    62   ar
    95    60    61    1
    96    60    57    1
    97    61    62    1
    98    62    64   ar
    99    58    57    1
   100    58    59    2
   101    57    56    1
