@<TRIPOS>MOLECULE
tmp/1m0wA01.pdb
 139 131 0 0 0
SMALL
GASTEIGER

@<TRIPOS>ATOM
      1  N          2.9340    1.7290    1.6720 N.3   123  ARG123     -0.1245
      2  CA         2.0480    2.5520    0.8500 C.3   123  ARG123      0.1563
      3  C          1.0650    3.2270    1.7950 C.2   123  ARG123      0.2260
      4  O          0.4080    2.5670    2.6020 O.2   123  ARG123     -0.2867
      5  CB         1.2580    1.7560   -0.2040 C.3   123  ARG123      0.0307
      6  CG         0.7120    2.6930   -1.3160 C.3   123  ARG123      0.0489
      7  CD        -0.1390    1.9770   -2.3720 C.3   123  ARG123      0.2205
      8  NE        -1.3980    1.5290   -1.7810 N.pl3 123  ARG123     -0.0865
      9  CZ        -1.8380    0.2740   -1.8180 C.cat 123  ARG123      0.5346
     10  NH1       -1.1360   -0.6770   -2.4340 N.pl3 123  ARG123      0.1354
     11  NH2       -2.9720   -0.0420   -1.2050 N.pl3 123  ARG123      0.1354
     12  N         -5.5320    4.3020    5.5180 N.3   141  GLU141     -0.1245
     13  CA        -4.7430    3.3590    6.3070 C.3   141  GLU141      0.1567
     14  C         -3.2890    3.4150    5.8150 C.2   141  GLU141      0.2260
     15  O         -3.0090    4.0330    4.7790 O.2   141  GLU141     -0.2867
     16  CB        -5.2810    1.9290    6.1650 C.3   141  GLU141      0.0388
     17  CG        -5.1270    1.3270    4.7600 C.3   141  GLU141      0.1160
     18  CD        -5.2760   -0.1860    4.7830 C.2   141  GLU141      0.3649
     19  OE1       -5.5550   -0.7850    3.7220 O.co2 141  GLU141     -0.2457
     20  OE2       -5.0960   -0.7860    5.8760 O.co2 141  GLU141     -0.2457
     21  N         -0.2360    0.8560    4.7690 N.3   143  ASN143     -0.1225
     22  CA         0.0270   -0.5470    4.4130 C.3   143  ASN143      0.1785
     23  C          1.4900   -0.8930    4.6480 C.2   143  ASN143      0.2598
     24  O          2.3690   -0.2550    4.0700 O.2   143  ASN143     -0.2718
     25  CB        -0.3140   -0.7800    2.9280 C.3   143  ASN143      0.1169
     26  CG        -1.7350   -0.3460    2.5730 C.2   143  ASN143      0.2627
     27  OD1       -2.6730   -1.1200    2.6830 O.2   143  ASN143     -0.2716
     28  ND2       -1.8870    0.9000    2.1410 N.am  143  ASN143     -0.0877
     29  N          1.7510   -1.8900    5.4950 N.am  144  THR144     -0.1939
     30  CA         3.1420   -2.2450    5.8020 C.3   144  THR144      0.2028
     31  C          3.5870   -3.6040    5.2710 C.2   144  THR144      0.2642
     32  O          4.6730   -4.0610    5.6010 O.2   144  THR144     -0.2714
     33  CB         3.3950   -2.2490    7.3140 C.3   144  THR144      0.1808
     34  OG1        2.5020   -3.1850    7.9330 O.3   144  THR144     -0.2208
     35  CG2        3.1910   -0.8530    7.8930 C.3   144  THR144      0.0379
     36  N          2.7610   -4.2630    4.4720 N.am  145  VAL145     -0.1963
     37  CA         3.1690   -5.5650    3.9450 C.3   145  VAL145      0.1727
     38  C          2.5150   -5.8590    2.6030 C.2   145  VAL145      0.2617
     39  O          1.3580   -5.4910    2.3660 O.2   145  VAL145     -0.2715
     40  CB         2.8320   -6.7130    4.9620 C.3   145  VAL145      0.0290
     41  CG1        1.3170   -6.7280    5.2630 C.3   145  VAL145      0.0023
     42  CG2        3.2640   -8.0600    4.4180 C.3   145  VAL145      0.0023
     43  N          3.3110   -6.4560    1.7130 N.am  146  SER146     -0.1936
     44  CA         2.8740   -6.8830    0.3900 C.3   146  SER146      0.2055
     45  C          2.0170   -5.8730   -0.3630 C.2   146  SER146      0.2643
     46  O          0.9820   -6.2610   -0.9050 O.2   146  SER146     -0.2714
     47  CB         2.1280   -8.2210    0.5340 C.3   146  SER146      0.2130
     48  OG         1.7110   -8.7570   -0.7130 O.3   146  SER146     -0.2179
     49  N          2.4420   -4.6000   -0.4220 N.am  147  VAL147     -0.1963
     50  CA         1.6540   -3.5890   -1.1310 C.3   147  VAL147      0.1727
     51  C          1.6470   -3.8550   -2.6340 C.2   147  VAL147      0.2617
     52  O          2.6700   -4.1900   -3.2580 O.2   147  VAL147     -0.2715
     53  CB         2.1040   -2.1080   -0.8010 C.3   147  VAL147      0.0290
     54  CG1        2.0690   -1.8900    0.7160 C.3   147  VAL147      0.0023
     55  CG2        3.4980   -1.8020   -1.3460 C.3   147  VAL147      0.0023
     56  N          0.4610   -3.7610   -3.2180 N.am  148  SER148     -0.1936
     57  CA         0.3290   -4.0380   -4.6470 C.3   148  SER148      0.2055
     58  C          0.3820   -2.8340   -5.5600 C.2   148  SER148      0.2643
     59  O          0.2900   -1.6800   -5.1290 O.2   148  SER148     -0.2714
     60  CB        -1.0180   -4.6960   -4.9480 C.3   148  SER148      0.2130
     61  OG        -1.2280   -5.8340   -4.1530 O.3   148  SER148     -0.2179
     62  N          0.5370   -3.1780   -6.8440 N.am  149  PHE149     -0.1973
     63  CA         0.4070   -2.2790   -8.0110 C.3   149  PHE149      0.1639
     64  C          1.5420   -1.3220   -8.3680 C.2   149  PHE149      0.2290
     65  O          1.3320   -0.4630   -9.2270 O.2   149  PHE149     -0.2864
     66  CB        -0.8990   -1.5280   -7.8820 C.3   149  PHE149      0.0560
     67  CG        -2.0900   -2.4370   -7.8590 C.ar  149  PHE149     -0.0200
     68  CD1       -2.3050   -3.3910   -8.8600 C.ar  149  PHE149     -0.0042
     69  CD2       -3.0140   -2.3590   -6.8230 C.ar  149  PHE149     -0.0042
     70  CE1       -3.4340   -4.2280   -8.8320 C.ar  149  PHE149     -0.0003
     71  CE2       -4.1470   -3.1600   -6.7850 C.ar  149  PHE149     -0.0003
     72  CZ        -4.3540   -4.1040   -7.7830 C.ar  149  PHE149     -0.0000
     73  N          1.8270  -16.0010   -3.3790 N.3   215  GLN215     -0.1245
     74  CA         0.5970  -16.7440   -3.1560 C.3   215  GLN215      0.1566
     75  C          0.4960  -17.8430   -4.2010 C.2   215  GLN215      0.2260
     76  O          0.9500  -17.6770   -5.3300 O.2   215  GLN215     -0.2867
     77  CB        -0.5860  -15.7850   -3.3250 C.3   215  GLN215      0.0367
     78  CG        -1.9420  -16.3890   -3.0690 C.3   215  GLN215      0.0905
     79  CD        -3.0360  -15.4460   -3.4910 C.2   215  GLN215      0.2608
     80  OE1       -3.1790  -14.3540   -2.9400 O.2   215  GLN215     -0.2717
     81  NE2       -3.8000  -15.8460   -4.5040 N.am  215  GLN215     -0.0878
     82  N         -1.3520  -16.9320   -7.8810 N.3   218  GLU218     -0.1245
     83  CA        -1.4710  -15.4820   -7.7950 C.3   218  GLU218      0.1567
     84  C         -1.9880  -14.9670   -9.1360 C.2   218  GLU218      0.2260
     85  O         -1.4170  -15.3000  -10.1720 O.2   218  GLU218     -0.2867
     86  CB        -0.0870  -14.8680   -7.5500 C.3   218  GLU218      0.0388
     87  CG        -0.0610  -13.3470   -7.6360 C.3   218  GLU218      0.1160
     88  CD        -0.9820  -12.7070   -6.6250 C.2   218  GLU218      0.3649
     89  OE1       -1.9510  -12.0370   -7.0540 O.co2 218  GLU218     -0.2457
     90  OE2       -0.7370  -12.8890   -5.3990 O.co2 218  GLU218     -0.2457
     91  N         -2.3440  -11.5700   -9.8190 N.3   220  ASN220     -0.1240
     92  CA        -1.6780  -10.2900  -10.0970 C.3   220  ASN220      0.1653
     93  C         -0.1680  -10.4950  -10.3560 C.2   220  ASN220      0.2266
     94  O          0.6550   -9.7060   -9.9100 O.2   220  ASN220     -0.2867
     95  CB        -1.8840   -9.3580   -8.8880 C.3   220  ASN220      0.1155
     96  CG        -1.4910   -7.9210   -9.1740 C.2   220  ASN220      0.2627
     97  OD1       -1.6700   -7.4310  -10.2940 O.2   220  ASN220     -0.2716
     98  ND2       -0.9920   -7.2210   -8.1460 N.am  220  ASN220     -0.0877
     99  N          3.8820   -8.0040  -10.3870 N.3   224  GLN224     -0.1245
    100  CA         5.0940   -8.4510   -9.6990 C.3   224  GLN224      0.1566
    101  C          6.2670   -8.6200  -10.6670 C.2   224  GLN224      0.2260
    102  O          7.4160   -8.3410  -10.3190 O.2   224  GLN224     -0.2867
    103  CB         4.8320   -9.7880   -8.9780 C.3   224  GLN224      0.0367
    104  CG         3.6130   -9.7290   -8.0460 C.3   224  GLN224      0.0905
    105  CD         3.2800  -11.0770   -7.4160 C.2   224  GLN224      0.2608
    106  OE1        3.6010  -12.1320   -7.9700 O.2   224  GLN224     -0.2717
    107  NE2        2.6040  -11.0430   -6.2660 N.am  224  GLN224     -0.0878
    108  N          4.9250  -11.1870   -0.9330 N.3   275  ARG275     -0.1245
    109  CA         3.7730  -10.7700   -1.7380 C.3   275  ARG275      0.1563
    110  C          2.6240  -11.7250   -1.3390 C.2   275  ARG275      0.2260
    111  O          1.6520  -11.9280   -2.0700 O.2   275  ARG275     -0.2867
    112  CB         4.0700  -10.8180   -3.2500 C.3   275  ARG275      0.0307
    113  CG         5.0870   -9.7140   -3.6800 C.3   275  ARG275      0.0489
    114  CD         4.5340   -8.2760   -3.4040 C.3   275  ARG275      0.2205
    115  NE         3.3940   -7.9800   -4.2770 N.pl3 275  ARG275     -0.0865
    116  CZ         3.4310   -7.1920   -5.3550 C.cat 275  ARG275      0.5346
    117  NH1        4.5600   -6.5700   -5.7220 N.pl3 275  ARG275      0.1354
    118  NH2        2.3420   -7.0620   -6.1040 N.pl3 275  ARG275      0.1354
    119  N         -0.3170  -11.9400    4.3260 N.3   278  TYR278     -0.1241
    120  CA        -1.0040  -10.8190    4.9690 C.3   278  TYR278      0.1605
    121  C         -2.4270  -11.1110    5.4220 C.2   278  TYR278      0.2264
    122  O         -3.0280  -10.2710    6.0860 O.2   278  TYR278     -0.2867
    123  CB        -0.9750   -9.5940    4.0540 C.3   278  TYR278      0.0534
    124  CG        -1.4140   -9.9550    2.6510 C.ar  278  TYR278     -0.0201
    125  CD1       -0.4960  -10.3620    1.6730 C.ar  278  TYR278     -0.0009
    126  CD2       -2.7640   -9.8830    2.3090 C.ar  278  TYR278     -0.0009
    127  CE1       -0.9220  -10.6980    0.4030 C.ar  278  TYR278      0.0417
    128  CE2       -3.1990  -10.2490    1.0420 C.ar  278  TYR278      0.0417
    129  CZ        -2.2750  -10.6590    0.0940 C.ar  278  TYR278      0.1957
    130  OH        -2.7220  -11.0310   -1.1480 O.3   278  TYR278     -0.2866
    131  N         -7.2740   -7.3670    9.3030 N.3   376  GLU376     -0.1245
    132  CA        -7.4710   -6.7920    7.9640 C.3   376  GLU376      0.1567
    133  C         -7.7550   -7.6940    6.7600 C.2   376  GLU376      0.2260
    134  O         -7.5630   -8.9070    6.7650 O.2   376  GLU376     -0.2867
    135  CB        -6.2350   -6.0090    7.6350 C.3   376  GLU376      0.0388
    136  CG        -6.3360   -4.5950    8.1160 C.3   376  GLU376      0.1160
    137  CD        -5.0210   -3.9220    7.9450 C.2   376  GLU376      0.3649
    138  OE1       -4.4270   -4.0700    6.8620 O.co2 376  GLU376     -0.2457
    139  OE2       -4.5590   -3.2370    8.8860 O.co2 376  GLU376     -0.2457
@<TRIPOS>BOND
     1   101   102    2
     2   101   100    1
     3    99   100    1
     4    93    92    1
     5    93    94    2
     6    97    96    2
     7    85    84    2
     8    92    91    1
     9    92    95    1
    10   100   103    1
    11    65    64    2
    12    96    95    1
    13    96    98   am
    14    84    83    1
    15   103   104    1
    16    68    70   ar
    17    68    67   ar
    18    70    72   ar
    19    64    63    1
    20   104   105    1
    21    63    66    1
    22    63    62    1
    23   106   105    2
    24    66    67    1
    25    82    83    1
    26    67    69   ar
    27    83    86    1
    28    72    71   ar
    29    87    86    1
    30    87    88    1
    31   105   107   am
    32    89    88   ar
    33    62    58   am
    34    69    71   ar
    35    88    90   ar
    36   118   116    1
    37   117   116    1
    38    58    59    2
    39    58    57    1
    40   116   115    2
    41    76    75    2
    42    60    57    1
    43    60    61    1
    44    57    56    1
    45    81    79   am
    46   115   114    1
    47    75    74    1
    48   113   114    1
    49   113   112    1
    50    79    78    1
    51    79    80    2
    52    73    74    1
    53    77    74    1
    54    77    78    1
    55    52    51    2
    56   112   109    1
    57    56    51   am
    58    51    50    1
    59    10     9    1
    60     7     8    1
    61     7     6    1
    62   111   110    2
    63     9     8    2
    64     9    11    1
    65   109   110    1
    66   109   108    1
    67    55    53    1
    68     6     5    1
    69   130   129    1
    70    50    53    1
    71    50    49    1
    72    46    45    2
    73    53    54    1
    74    48    47    1
    75    49    45   am
    76    45    44    1
    77     5     2    1
    78   129   127   ar
    79   129   128   ar
    80    44    47    1
    81    44    43    1
    82   127   125   ar
    83     2     1    1
    84     2     3    1
    85   128   126   ar
    86   125   124   ar
    87    43    38   am
    88     3     4    2
    89    28    26   am
    90   126   124   ar
    91    39    38    2
    92    26    27    2
    93    26    25    1
    94    38    37    1
    95   124   123    1
    96    25    22    1
    97    19    18   ar
    98    37    36    1
    99    37    40    1
   100   123   120    1
   101    24    23    2
   102   119   120    1
   103    22    23    1
   104    22    21    1
   105    42    40    1
   106    36    31   am
   107    23    29   am
   108    17    18    1
   109    17    16    1
   110    15    14    2
   111    18    20   ar
   112    40    41    1
   113   120   121    1
   114    31    32    2
   115    31    30    1
   116   121   122    2
   117    29    30    1
   118    12    13    1
   119    30    33    1
   120    14    13    1
   121    16    13    1
   122   133   134    2
   123   133   132    1
   124   138   137   ar
   125    33    35    1
   126    33    34    1
   127   135   132    1
   128   135   136    1
   129   137   136    1
   130   137   139   ar
   131   132   131    1
