@<TRIPOS>MOLECULE
tmp/1m0wA00.pdb
 175 163 0 0 0
SMALL
GASTEIGER

@<TRIPOS>ATOM
      1  N          2.9340    1.7290    1.6720 N.3   123  ARG123     -0.1245
      2  CA         2.0480    2.5520    0.8500 C.3   123  ARG123      0.1563
      3  C          1.0650    3.2270    1.7950 C.2   123  ARG123      0.2260
      4  O          0.4080    2.5670    2.6020 O.2   123  ARG123     -0.2867
      5  CB         1.2580    1.7560   -0.2040 C.3   123  ARG123      0.0307
      6  CG         0.7120    2.6930   -1.3160 C.3   123  ARG123      0.0489
      7  CD        -0.1390    1.9770   -2.3720 C.3   123  ARG123      0.2205
      8  NE        -1.3980    1.5290   -1.7810 N.pl3 123  ARG123     -0.0865
      9  CZ        -1.8380    0.2740   -1.8180 C.cat 123  ARG123      0.5346
     10  NH1       -1.1360   -0.6770   -2.4340 N.pl3 123  ARG123      0.1354
     11  NH2       -2.9720   -0.0420   -1.2050 N.pl3 123  ARG123      0.1354
     12  N         -7.7930    9.6080    0.9720 N.3   127  LEU127     -0.1245
     13  CA        -8.9930   10.0640    0.2780 C.3   127  LEU127      0.1561
     14  C         -8.9300   11.5520    0.4260 C.2   127  LEU127      0.2260
     15  O         -8.5110   12.0290    1.4690 O.2   127  LEU127     -0.2867
     16  CB       -10.2800    9.4780    0.8620 C.3   127  LEU127      0.0270
     17  CG       -10.6000    8.0550    0.3940 C.3   127  LEU127      0.0019
     18  CD1      -11.7990    7.5090    1.1450 C.3   127  LEU127      0.0001
     19  CD2      -10.8180    8.0170   -1.1210 C.3   127  LEU127      0.0001
     20  N         -6.4830    6.8480    4.8880 N.3   140  VAL140     -0.1231
     21  CA        -7.4310    5.7450    5.0390 C.3   140  VAL140      0.1692
     22  C         -6.7460    4.6920    5.9160 C.2   140  VAL140      0.2591
     23  O         -7.2940    4.2270    6.9080 O.2   140  VAL140     -0.2718
     24  CB        -7.7380    5.1300    3.6720 C.3   140  VAL140      0.0266
     25  CG1       -8.4970    3.8200    3.8390 C.3   140  VAL140      0.0020
     26  CG2       -8.5290    6.1330    2.8450 C.3   140  VAL140      0.0020
     27  N         -5.5320    4.3020    5.5180 N.am  141  GLU141     -0.1979
     28  CA        -4.7430    3.3590    6.3070 C.3   141  GLU141      0.1602
     29  C         -3.2890    3.4150    5.8150 C.2   141  GLU141      0.2287
     30  O         -3.0090    4.0330    4.7790 O.2   141  GLU141     -0.2864
     31  CB        -5.2810    1.9290    6.1650 C.3   141  GLU141      0.0415
     32  CG        -5.1270    1.3270    4.7600 C.3   141  GLU141      0.1163
     33  CD        -5.2760   -0.1860    4.7830 C.2   141  GLU141      0.3649
     34  OE1       -5.5550   -0.7850    3.7220 O.co2 141  GLU141     -0.2457
     35  OE2       -5.0960   -0.7860    5.8760 O.co2 141  GLU141     -0.2457
     36  N         -0.2360    0.8560    4.7690 N.3   143  ASN143     -0.1240
     37  CA         0.0270   -0.5470    4.4130 C.3   143  ASN143      0.1653
     38  C          1.4900   -0.8930    4.6480 C.2   143  ASN143      0.2266
     39  O          2.3690   -0.2550    4.0700 O.2   143  ASN143     -0.2867
     40  CB        -0.3140   -0.7800    2.9280 C.3   143  ASN143      0.1155
     41  CG        -1.7350   -0.3460    2.5730 C.2   143  ASN143      0.2627
     42  OD1       -2.6730   -1.1200    2.6830 O.2   143  ASN143     -0.2716
     43  ND2       -1.8870    0.9000    2.1410 N.am  143  ASN143     -0.0877
     44  N         -4.4330   -1.5660   12.5940 N.3   314  LYS314     -0.1245
     45  CA        -5.4120   -0.5040   12.7490 C.3   314  LYS314      0.1561
     46  C         -5.3410    0.0740   14.1610 C.2   314  LYS314      0.2260
     47  O         -5.6090    1.2550   14.3570 O.2   314  LYS314     -0.2867
     48  CB        -6.8180   -1.0510   12.4550 C.3   314  LYS314      0.0271
     49  CG        -7.0050   -1.4340   10.9920 C.3   314  LYS314      0.0035
     50  CD        -7.1250   -0.1930   10.1270 C.3   314  LYS314      0.0206
     51  CE        -6.7280   -0.4230    8.6740 C.3   314  LYS314      0.1093
     52  NZ        -7.4890   -1.4420    7.9350 N.3   314  LYS314     -0.1314
     53  N        -17.1790    4.8640   10.2070 N.3   370  VAL370     -0.1245
     54  CA       -17.0760    3.5550    9.5880 C.3   370  VAL370      0.1561
     55  C        -16.4390    2.7160   10.6890 C.2   370  VAL370      0.2260
     56  O        -15.4870    3.1520   11.3410 O.2   370  VAL370     -0.2867
     57  CB       -16.1550    3.5050    8.3330 C.3   370  VAL370      0.0252
     58  CG1      -14.7960    3.9840    8.6670 C.3   370  VAL370      0.0019
     59  CG2      -16.0680    2.0550    7.8160 C.3   370  VAL370      0.0019
     60  N        -14.2860   -0.3950   11.5970 N.3   372  LYS372     -0.1231
     61  CA       -13.3200   -1.2360   10.8880 C.3   372  LYS372      0.1678
     62  C        -12.6940   -2.3000   11.7970 C.2   372  LYS372      0.2434
     63  O        -12.2470   -2.0030   12.8930 O.2   372  LYS372     -0.2733
     64  CB       -12.2120   -0.3480   10.2900 C.3   372  LYS372      0.0284
     65  CG       -12.7280    0.9610    9.6750 C.3   372  LYS372      0.0035
     66  CD       -11.5800    1.8530    9.1530 C.3   372  LYS372      0.0206
     67  CE       -10.8540    1.2030    7.9860 C.3   372  LYS372      0.1093
     68  NZ        -9.9010    2.1860    7.3190 N.3   372  LYS372     -0.1314
     69  N        -12.6430   -3.5570   11.3320 N.am  373  PRO373     -0.2729
     70  CA       -12.0670   -4.6590   12.1100 C.3   373  PRO373      0.1401
     71  C        -10.5510   -4.5590   12.2300 C.2   373  PRO373      0.2269
     72  O         -9.8820   -4.1000   11.3090 O.2   373  PRO373     -0.2865
     73  CB       -12.4780   -5.8890   11.3110 C.3   373  PRO373      0.0296
     74  CG       -12.3800   -5.3940    9.9090 C.3   373  PRO373      0.0237
     75  CD       -13.0630   -4.0240    9.9980 C.3   373  PRO373      0.0939
     76  N         -7.2740   -7.3670    9.3030 N.3   376  GLU376     -0.1231
     77  CA        -7.4710   -6.7920    7.9640 C.3   376  GLU376      0.1699
     78  C         -7.7550   -7.6940    6.7600 C.2   376  GLU376      0.2593
     79  O         -7.5630   -8.9070    6.7650 O.2   376  GLU376     -0.2718
     80  CB        -6.2350   -6.0090    7.6350 C.3   376  GLU376      0.0402
     81  CG        -6.3360   -4.5950    8.1160 C.3   376  GLU376      0.1161
     82  CD        -5.0210   -3.9220    7.9450 C.2   376  GLU376      0.3649
     83  OE1       -4.4270   -4.0700    6.8620 O.co2 376  GLU376     -0.2457
     84  OE2       -4.5590   -3.2370    8.8860 O.co2 376  GLU376     -0.2457
     85  N         -8.2240   -7.0100    5.7120 N.am  377  GLY377     -0.1942
     86  CA        -8.4940   -7.6230    4.4250 C.3   377  GLY377      0.2014
     87  C         -9.7300   -8.4670    4.2130 C.2   377  GLY377      0.2639
     88  O         -9.9420   -8.9640    3.1040 O.2   377  GLY377     -0.2714
     89  N        -10.5490   -8.6330    5.2460 N.am  378  GLY378     -0.1939
     90  CA       -11.7370   -9.4550    5.0990 C.3   378  GLY378      0.2014
     91  C        -12.8920   -8.7920    4.3680 C.2   378  GLY378      0.2639
     92  O        -13.9000   -9.4430    4.0690 O.2   378  GLY378     -0.2714
     93  N        -12.7450   -7.5040    4.0690 N.am  379  GLY379     -0.1954
     94  CA       -13.8000   -6.7790    3.3880 C.3   379  GLY379      0.1869
     95  C        -15.0290   -6.7030    4.2770 C.2   379  GLY379      0.2309
     96  O        -16.1530   -6.9060    3.8160 O.2   379  GLY379     -0.2863
     97  N        -15.8940   -3.8460    6.5430 N.3   381  ASN381     -0.1240
     98  CA       -16.1030   -2.5370    7.1940 C.3   381  ASN381      0.1653
     99  C        -17.6080   -2.3620    7.3240 C.2   381  ASN381      0.2266
    100  O        -18.3500   -2.8290    6.4590 O.2   381  ASN381     -0.2867
    101  CB       -15.5810   -1.3490    6.3620 C.3   381  ASN381      0.1155
    102  CG       -14.0710   -1.2170    6.4000 C.2   381  ASN381      0.2627
    103  OD1      -13.4230   -1.7480    7.2850 O.2   381  ASN381     -0.2716
    104  ND2      -13.5110   -0.4740    5.4460 N.am  381  ASN381     -0.0877
    105  N        -20.5740    0.5560    7.6880 N.3   383  TYR383     -0.1241
    106  CA       -20.7330    2.0140    7.5520 C.3   383  TYR383      0.1605
    107  C        -21.9790    2.6850    8.1280 C.2   383  TYR383      0.2264
    108  O        -23.0800    2.1440    8.1250 O.2   383  TYR383     -0.2867
    109  CB       -20.7400    2.3680    6.0730 C.3   383  TYR383      0.0534
    110  CG       -19.4380    2.0960    5.3740 C.ar  383  TYR383     -0.0201
    111  CD1      -19.1350    0.8220    4.8940 C.ar  383  TYR383     -0.0009
    112  CD2      -18.4970    3.1110    5.2170 C.ar  383  TYR383     -0.0009
    113  CE1      -17.9150    0.5630    4.2680 C.ar  383  TYR383      0.0417
    114  CE2      -17.2700    2.8690    4.5930 C.ar  383  TYR383      0.0417
    115  CZ       -16.9910    1.5960    4.1230 C.ar  383  TYR383      0.1957
    116  OH       -15.7920    1.3490    3.5010 O.3   383  TYR383     -0.2866
    117  N        -13.8220    4.8200   13.0440 N.3   405  MET405     -0.1230
    118  CA       -13.1290    5.8470   12.2790 C.3   405  MET405      0.1702
    119  C        -14.0460    6.8740   11.6400 C.2   405  MET405      0.2592
    120  O        -15.0650    6.5360   11.0340 O.2   405  MET405     -0.2718
    121  CB       -12.2760    5.1700   11.1840 C.3   405  MET405      0.0401
    122  CG       -11.3370    6.1200   10.4420 C.3   405  MET405      0.0596
    123  SD       -10.2040    5.2220    9.3150 S.3   405  MET405     -0.1393
    124  CE        -9.2130    6.5980    8.7060 C.3   405  MET405      0.0692
    125  N        -13.6760    8.1390   11.7780 N.am  406  GLU406     -0.1966
    126  CA       -14.4530    9.1960   11.1660 C.3   406  GLU406      0.1733
    127  C        -14.4720    8.9410    9.6600 C.2   406  GLU406      0.2616
    128  O        -13.4610    8.5690    9.0450 O.2   406  GLU406     -0.2715
    129  CB       -13.8210   10.5570   11.4860 C.3   406  GLU406      0.0429
    130  CG       -14.4030   11.7430   10.7590 C.3   406  GLU406      0.1163
    131  CD       -13.6350   13.0290   11.0820 C.2   406  GLU406      0.3649
    132  OE1      -12.8270   13.0350   12.0460 O.co2 406  GLU406     -0.2457
    133  OE2      -13.8450   14.0400   10.3690 O.co2 406  GLU406     -0.2457
    134  N        -15.6370    9.1410    9.0680 N.am  407  LEU407     -0.1963
    135  CA       -15.8140    8.9320    7.6460 C.3   407  LEU407      0.1728
    136  C        -15.2160   10.0870    6.8250 C.2   407  LEU407      0.2616
    137  O        -15.5250   11.2710    7.0640 O.2   407  LEU407     -0.2715
    138  CB       -17.3130    8.7940    7.3460 C.3   407  LEU407      0.0311
    139  CG       -17.6670    8.3840    5.9540 C.3   407  LEU407      0.0022
    140  CD1      -17.4510    6.9000    5.7230 C.3   407  LEU407      0.0001
    141  CD2      -19.1000    8.7830    5.6210 C.3   407  LEU407      0.0001
    142  N        -14.3280    9.7440    5.8900 N.am  408  ILE408     -0.1977
    143  CA       -13.7150   10.7350    4.9890 C.3   408  ILE408      0.1596
    144  C        -14.7560   10.9470    3.8780 C.2   408  ILE408      0.2287
    145  O        -15.3510    9.9800    3.3930 O.2   408  ILE408     -0.2864
    146  CB       -12.3780   10.2190    4.3940 C.3   408  ILE408      0.0276
    147  CG1      -11.3910    9.8840    5.5350 C.3   408  ILE408      0.0022
    148  CG2      -11.7780   11.2800    3.4550 C.3   408  ILE408      0.0022
    149  CD1      -10.2220    8.9780    5.1250 C.3   408  ILE408      0.0001
    150  N        -14.9160    6.9030   -6.7400 N.3   430  ILE430     -0.1245
    151  CA       -14.1720    7.4350   -5.6050 C.3   430  ILE430      0.1561
    152  C        -12.7350    7.0100   -5.9190 C.2   430  ILE430      0.2260
    153  O        -12.5090    5.8840   -6.3650 O.2   430  ILE430     -0.2867
    154  CB       -14.6130    6.8080   -4.2730 C.3   430  ILE430      0.0252
    155  CG1      -13.6990    7.3070   -3.1580 C.3   430  ILE430      0.0019
    156  CG2      -14.5430    5.2930   -4.3260 C.3   430  ILE430      0.0019
    157  CD1      -14.2850    7.1250   -1.7700 C.3   430  ILE430      0.0001
    158  N         -8.7360    6.6710   -4.4930 N.3   432  GLU432     -0.1245
    159  CA        -7.8610    6.6260   -3.3290 C.3   432  GLU432      0.1567
    160  C         -6.3970    6.7260   -3.7780 C.2   432  GLU432      0.2260
    161  O         -5.8660    5.8580   -4.4890 O.2   432  GLU432     -0.2867
    162  CB        -8.1510    5.3220   -2.5670 C.3   432  GLU432      0.0388
    163  CG        -7.4500    5.1870   -1.2280 C.3   432  GLU432      0.1160
    164  CD        -7.9410    3.9660   -0.4600 C.2   432  GLU432      0.3649
    165  OE1       -7.1380    3.3320    0.2570 O.co2 432  GLU432     -0.2457
    166  OE2       -9.1350    3.6430   -0.5590 O.co2 432  GLU432     -0.2457
    167  N        -13.0330    3.2590   -7.7200 N.3   459  LYS459     -0.1245
    168  CA       -14.0700    2.2470   -7.7490 C.3   459  LYS459      0.1561
    169  C        -15.4350    2.8940   -7.7250 C.2   459  LYS459      0.2260
    170  O        -15.5740    4.0550   -7.3960 O.2   459  LYS459     -0.2867
    171  CB       -13.9270    1.2600   -6.5740 C.3   459  LYS459      0.0271
    172  CG       -14.0150    1.8680   -5.2030 C.3   459  LYS459      0.0035
    173  CD       -13.8310    0.8300   -4.0790 C.3   459  LYS459      0.0206
    174  CE       -13.6990    1.5410   -2.7310 C.3   459  LYS459      0.1093
    175  NZ       -13.6460    0.6190   -1.5670 N.3   459  LYS459     -0.1314
@<TRIPOS>BOND
     1   168   169    1
     2   168   167    1
     3   168   171    1
     4   169   170    2
     5   150   151    1
     6   171   172    1
     7   153   152    2
     8   152   151    1
     9   151   154    1
    10   172   173    1
    11   158   159    1
    12   161   160    2
    13   156   154    1
    14   154   155    1
    15   173   174    1
    16   160   159    1
    17   159   162    1
    18   155   157    1
    19   174   175    1
    20   162   163    1
    21    10     9    1
    22     7     8    1
    23     7     6    1
    24     9     8    2
    25     9    11    1
    26     6     5    1
    27   163   164    1
    28    19    17    1
    29   166   164   ar
    30   164   165   ar
    31     5     2    1
    32    13    14    1
    33    13    16    1
    34    13    12    1
    35    17    16    1
    36    17    18    1
    37    14    15    2
    38     2     1    1
    39     2     3    1
    40     3     4    2
    41    43    41   am
    42    41    42    2
    43    41    40    1
    44    26    24    1
    45    40    37    1
    46    88    87    2
    47    94    93    1
    48    94    95    1
    49   145   144    2
    50   148   146    1
    51   116   115    1
    52    24    25    1
    53    24    21    1
    54    34    33   ar
    55    96    95    2
    56   144   143    1
    57    92    91    2
    58    93    91   am
    59    39    38    2
    60   115   113   ar
    61   115   114   ar
    62    87    86    1
    63    87    89   am
    64   113   111   ar
    65    91    90    1
    66   146   143    1
    67   146   147    1
    68    37    38    1
    69    37    36    1
    70    86    85    1
    71   114   112   ar
    72    32    33    1
    73    32    31    1
    74    30    29    2
    75    33    35   ar
    76    20    21    1
    77   111   110   ar
    78   143   142    1
    79    21    22    1
    80    90    89    1
    81   149   147    1
    82   112   110   ar
    83   110   109    1
    84   104   102   am
    85    27    22   am
    86    27    28    1
    87   141   139    1
    88    85    78   am
    89   140   139    1
    90    29    28    1
    91   142   136   am
    92    22    23    2
    93   139   138    1
    94   109   106    1
    95    31    28    1
    96   101   102    1
    97   101    98    1
    98   102   103    2
    99   100    99    2
   100    97    98    1
   101    78    79    2
   102    78    77    1
   103   136   137    2
   104   136   135    1
   105    83    82   ar
   106    98    99    1
   107    68    67    1
   108   138   135    1
   109   106   105    1
   110   106   107    1
   111    80    77    1
   112    80    81    1
   113   135   134    1
   114    59    57    1
   115    52    51    1
   116    82    81    1
   117    82    84   ar
   118    77    76    1
   119    67    66    1
   120   108   107    2
   121    57    58    1
   122    57    54    1
   123    51    50    1
   124   124   123    1
   125   128   127    2
   126   134   127   am
   127    66    65    1
   128   123   122    1
   129    54    53    1
   130    54    55    1
   131   127   126    1
   132    65    64    1
   133    74    75    1
   134    74    73    1
   135    75    69    1
   136    50    49    1
   137    64    61    1
   138   133   131   ar
   139   122   121    1
   140    55    56    2
   141   130   131    1
   142   130   129    1
   143    61    60    1
   144    61    62    1
   145    49    48    1
   146   120   119    2
   147   131   132   ar
   148   126   129    1
   149   126   125    1
   150   121   118    1
   151    72    71    2
   152    73    70    1
   153    69    62   am
   154    69    70    1
   155   119   125   am
   156   119   118    1
   157    62    63    2
   158    70    71    1
   159   118   117    1
   160    48    45    1
   161    44    45    1
   162    45    46    1
   163    46    47    2
